$# LS-PrePost command file created by LS-PrePost(R) V4.7.1 - 23Nov2019 -64bit-Window
$# Created on Aug-13-2020 (15:17:41)
open keyword "C:\Users\carlmagnusev\Documents\GitHub\LS-Dyna-Deepdrawing\Deepdrawing_Main.k"
