open keyword "C:\Users\carlmagnusev\Documents\GitHub\LS-Dyna-Deepdrawing\FemaleDieMesh.K"
Finished reading model
assembly off fem 1
assembly on fem 1
-M 1
+M 1
quat 0.236784 0.016879 0.030943 0.970922;
quat 0.455767 0.000769 0.031488 0.889542;
quat 0.614399 -0.061545 -0.025821 0.786167;
quat 0.721951 -0.048926 -0.052134 0.688241;
quat 0.579212 0.062402 0.064136 0.810251;
quat 0.426241 0.092456 0.122085 0.891552;
Save Config. parameters to file C:\Users\carlmagnusev\AppData\Roaming\LSTC\LS-PrePost4.7\lsppconf
