ISO-10303-21;
HEADER;
FILE_DESCRIPTION(('FreeCAD Model'),'2;1');
FILE_NAME(
'C:/Users/carlmagnusev/Documents/GitHub/LS-Dyna-Deepdrawing/MaleDie_
Calle.step','2020-08-14T08:33:50',('Author'),(''),
  'Open CASCADE STEP processor 7.3','FreeCAD','Unknown');
FILE_SCHEMA(('AUTOMOTIVE_DESIGN { 1 0 10303 214 1 1 1 1 }'));
ENDSEC;
DATA;
#1 = APPLICATION_PROTOCOL_DEFINITION('international standard',
  'automotive_design',2000,#2);
#2 = APPLICATION_CONTEXT(
  'core data for automotive mechanical design processes');
#3 = SHAPE_DEFINITION_REPRESENTATION(#4,#10);
#4 = PRODUCT_DEFINITION_SHAPE('','',#5);
#5 = PRODUCT_DEFINITION('design','',#6,#9);
#6 = PRODUCT_DEFINITION_FORMATION('','',#7);
#7 = PRODUCT('Body','Body','',(#8));
#8 = PRODUCT_CONTEXT('',#2,'mechanical');
#9 = PRODUCT_DEFINITION_CONTEXT('part definition',#2,'design');
#10 = ADVANCED_BREP_SHAPE_REPRESENTATION('',(#11,#15),#2573);
#11 = AXIS2_PLACEMENT_3D('',#12,#13,#14);
#12 = CARTESIAN_POINT('',(0.,0.,0.));
#13 = DIRECTION('',(0.,0.,1.));
#14 = DIRECTION('',(1.,0.,-0.));
#15 = MANIFOLD_SOLID_BREP('',#16);
#16 = CLOSED_SHELL('',(#17,#543,#615,#729,#843,#894,#945,#1059,#1173,
    #1203,#1279,#1328,#1377,#1404,#1522,#1645,#1735,#1816,#1897,#2020,
    #2110,#2154,#2161,#2257,#2289,#2335,#2400,#2457,#2489,#2535,#2566));
#17 = ADVANCED_FACE('',(#18,#429),#31,.T.);
#18 = FACE_BOUND('',#19,.T.);
#19 = EDGE_LOOP('',(#20,#55,#128,#156,#229,#257,#330,#358));
#20 = ORIENTED_EDGE('',*,*,#21,.T.);
#21 = EDGE_CURVE('',#22,#24,#26,.T.);
#22 = VERTEX_POINT('',#23);
#23 = CARTESIAN_POINT('',(48.829177622679,19.381966011252,0.));
#24 = VERTEX_POINT('',#25);
#25 = CARTESIAN_POINT('',(21.170822377321,19.381966011252,0.));
#26 = SURFACE_CURVE('',#27,(#30,#41),.PCURVE_S1.);
#27 = B_SPLINE_CURVE_WITH_KNOTS('',1,(#28,#29),.UNSPECIFIED.,.F.,.F.,(2,
    2),(-3.36,33.36),.PIECEWISE_BEZIER_KNOTS.);
#28 = CARTESIAN_POINT('',(53.36,19.38196601125,0.));
#29 = CARTESIAN_POINT('',(16.64,19.38196601125,0.));
#30 = PCURVE('',#31,#36);
#31 = PLANE('',#32);
#32 = AXIS2_PLACEMENT_3D('',#33,#34,#35);
#33 = CARTESIAN_POINT('',(35.,35.,0.));
#34 = DIRECTION('',(0.,0.,1.));
#35 = DIRECTION('',(1.,0.,0.));
#36 = DEFINITIONAL_REPRESENTATION('',(#37),#40);
#37 = B_SPLINE_CURVE_WITH_KNOTS('',1,(#38,#39),.UNSPECIFIED.,.F.,.F.,(2,
    2),(-3.36,33.36),.PIECEWISE_BEZIER_KNOTS.);
#38 = CARTESIAN_POINT('',(18.36,-15.61803398875));
#39 = CARTESIAN_POINT('',(-18.36,-15.61803398875));
#40 = ( GEOMETRIC_REPRESENTATION_CONTEXT(2) 
PARAMETRIC_REPRESENTATION_CONTEXT() REPRESENTATION_CONTEXT('2D SPACE',''
  ) );
#41 = PCURVE('',#42,#49);
#42 = ( BOUNDED_SURFACE() B_SPLINE_SURFACE(2,1,(
    (#43,#44)
    ,(#45,#46)
,(#47,#48
  )),.UNSPECIFIED.,.F.,.F.,.F.) B_SPLINE_SURFACE_WITH_KNOTS((3,3),(2,2),
  (0.,36.72),(-3.36,33.36),.PIECEWISE_BEZIER_KNOTS.) 
GEOMETRIC_REPRESENTATION_ITEM() RATIONAL_B_SPLINE_SURFACE((
    (1.,1.)
    ,(0.850650808352,0.850650808352)
,(1.,1.))) REPRESENTATION_ITEM('') SURFACE() );
#43 = CARTESIAN_POINT('',(53.36,19.38196601125,0.));
#44 = CARTESIAN_POINT('',(16.64,19.38196601125,0.));
#45 = CARTESIAN_POINT('',(53.36,20.,-4.440892098501E-16));
#46 = CARTESIAN_POINT('',(16.64,20.,-4.440892098501E-16));
#47 = CARTESIAN_POINT('',(53.36,20.27639320225,0.5527864045));
#48 = CARTESIAN_POINT('',(16.64,20.27639320225,0.5527864045));
#49 = DEFINITIONAL_REPRESENTATION('',(#50),#54);
#50 = LINE('',#51,#52);
#51 = CARTESIAN_POINT('',(0.,0.));
#52 = VECTOR('',#53,1.);
#53 = DIRECTION('',(0.,1.));
#54 = ( GEOMETRIC_REPRESENTATION_CONTEXT(2) 
PARAMETRIC_REPRESENTATION_CONTEXT() REPRESENTATION_CONTEXT('2D SPACE',''
  ) );
#55 = ORIENTED_EDGE('',*,*,#56,.F.);
#56 = EDGE_CURVE('',#57,#24,#59,.T.);
#57 = VERTEX_POINT('',#58);
#58 = CARTESIAN_POINT('',(19.38196601125,21.170822377322,0.));
#59 = SURFACE_CURVE('',#60,(#72,#87),.PCURVE_S1.);
#60 = ( BOUNDED_CURVE() B_SPLINE_CURVE(10,(#61,#62,#63,#64,#65,#66,#67,
#68,#69,#70,#71),.UNSPECIFIED.,.F.,.F.) B_SPLINE_CURVE_WITH_KNOTS((11,11
    ),(-2.218259478952E-06,1.570798545055),.PIECEWISE_BEZIER_KNOTS.) 
CURVE() GEOMETRIC_REPRESENTATION_ITEM() RATIONAL_B_SPLINE_CURVE((1.,1.,
1.,1.,1.,1.,1.,1.,1.,1.,1.)) REPRESENTATION_ITEM('') );
#61 = CARTESIAN_POINT('',(19.38196601125,21.170822377322,0.));
#62 = CARTESIAN_POINT('',(19.381965699594,20.889829306108,
    6.661338147751E-16));
#63 = CARTESIAN_POINT('',(19.42396203891,20.60899220766,
    -1.609823385706E-15));
#64 = CARTESIAN_POINT('',(19.510549004305,20.332384501882,
    2.164934898019E-15));
#65 = CARTESIAN_POINT('',(19.644591698958,20.073990943704,
    -7.771561172376E-16));
#66 = CARTESIAN_POINT('',(19.827141229788,19.827141229789,
    -1.942890293094E-15));
#67 = CARTESIAN_POINT('',(20.073990943705,19.644591698957,
    3.219646771413E-15));
#68 = CARTESIAN_POINT('',(20.332384501881,19.510549004305,
    -2.609024107869E-15));
#69 = CARTESIAN_POINT('',(20.608992207661,19.423962038909,
    1.110223024625E-15));
#70 = CARTESIAN_POINT('',(20.889829306108,19.381965699594,
    -2.775557561563E-16));
#71 = CARTESIAN_POINT('',(21.170822377321,19.381966011252,0.));
#72 = PCURVE('',#31,#73);
#73 = DEFINITIONAL_REPRESENTATION('',(#74),#86);
#74 = ( BOUNDED_CURVE() B_SPLINE_CURVE(10,(#75,#76,#77,#78,#79,#80,#81,
#82,#83,#84,#85),.UNSPECIFIED.,.F.,.F.) B_SPLINE_CURVE_WITH_KNOTS((11,11
    ),(-2.218259478952E-06,1.570798545055),.PIECEWISE_BEZIER_KNOTS.) 
CURVE() GEOMETRIC_REPRESENTATION_ITEM() RATIONAL_B_SPLINE_CURVE((1.,1.,
1.,1.,1.,1.,1.,1.,1.,1.,1.)) REPRESENTATION_ITEM('') );
#75 = CARTESIAN_POINT('',(-15.61803398875,-13.82917762267));
#76 = CARTESIAN_POINT('',(-15.6180343004,-14.11017069389));
#77 = CARTESIAN_POINT('',(-15.57603796109,-14.39100779234));
#78 = CARTESIAN_POINT('',(-15.48945099569,-14.66761549811));
#79 = CARTESIAN_POINT('',(-15.35540830104,-14.92600905629));
#80 = CARTESIAN_POINT('',(-15.17285877021,-15.17285877021));
#81 = CARTESIAN_POINT('',(-14.92600905629,-15.35540830104));
#82 = CARTESIAN_POINT('',(-14.66761549811,-15.48945099569));
#83 = CARTESIAN_POINT('',(-14.39100779233,-15.57603796109));
#84 = CARTESIAN_POINT('',(-14.11017069389,-15.6180343004));
#85 = CARTESIAN_POINT('',(-13.82917762267,-15.61803398874));
#86 = ( GEOMETRIC_REPRESENTATION_CONTEXT(2) 
PARAMETRIC_REPRESENTATION_CONTEXT() REPRESENTATION_CONTEXT('2D SPACE',''
  ) );
#87 = PCURVE('',#88,#122);
#88 = ( BOUNDED_SURFACE() B_SPLINE_SURFACE(2,10,(
    (#89,#90,#91,#92,#93,#94,#95,#96,#97,#98,#99)
    ,(#100,#101,#102,#103,#104,#105,#106,#107,#108,#109,#110)
    ,(#111,#112,#113,#114,#115,#116,#117,#118,#119,#120,#121
)),.UNSPECIFIED.,.F.,.F.,.F.) B_SPLINE_SURFACE_WITH_KNOTS((3,3),(11,11),
  (0.,1.570800763314),(-2.218259478952E-06,1.570798545055),
.PIECEWISE_BEZIER_KNOTS.) GEOMETRIC_REPRESENTATION_ITEM() 
RATIONAL_B_SPLINE_SURFACE((
    (1.,1.,1.,1.,1.,1.,1.,1.,1.,1.,1.)
    ,(0.850650808352,0.86244818136,0.87359482544,0.883551063191
      ,0.891206300064,0.894662511997,0.891206300064,0.883551063191
      ,0.87359482544,0.86244818136,0.850650808352)
,(1.,1.,1.,1.,1.,1.,1.,1.,1.,1.,1.
  ))) REPRESENTATION_ITEM('') SURFACE() );
#89 = CARTESIAN_POINT('',(19.38196601125,21.170822377322,0.));
#90 = CARTESIAN_POINT('',(19.381965699594,20.889829306108,
    6.661338147751E-16));
#91 = CARTESIAN_POINT('',(19.42396203891,20.60899220766,
    -1.609823385706E-15));
#92 = CARTESIAN_POINT('',(19.510549004305,20.332384501882,
    2.164934898019E-15));
#93 = CARTESIAN_POINT('',(19.644591698958,20.073990943704,
    -7.771561172376E-16));
#94 = CARTESIAN_POINT('',(19.827141229788,19.827141229789,
    -1.942890293094E-15));
#95 = CARTESIAN_POINT('',(20.073990943705,19.644591698957,
    3.219646771413E-15));
#96 = CARTESIAN_POINT('',(20.332384501881,19.510549004305,
    -2.609024107869E-15));
#97 = CARTESIAN_POINT('',(20.608992207661,19.423962038909,
    1.110223024625E-15));
#98 = CARTESIAN_POINT('',(20.889829306108,19.381965699594,
    -2.775557561563E-16));
#99 = CARTESIAN_POINT('',(21.170822377321,19.381966011252,0.));
#100 = CARTESIAN_POINT('',(20.,21.170821006361,-5.551115123126E-17));
#101 = CARTESIAN_POINT('',(19.969412875467,20.989424552856,
    6.106226635438E-16));
#102 = CARTESIAN_POINT('',(19.964394215569,20.796900788628,
    -2.6645352591E-15));
#103 = CARTESIAN_POINT('',(19.992587161731,20.592998776875,
    -1.221245327088E-15));
#104 = CARTESIAN_POINT('',(20.062792566112,20.396386118429,
    2.159383782896E-14));
#105 = CARTESIAN_POINT('',(20.186100437546,20.186100437546,
    -4.896083538597E-14));
#106 = CARTESIAN_POINT('',(20.39638611843,20.062792566112,
    5.34572386357E-14));
#107 = CARTESIAN_POINT('',(20.592998776875,19.992587161731,
    -3.103073353827E-14));
#108 = CARTESIAN_POINT('',(20.796900788629,19.964394215569,
    8.160139230995E-15));
#109 = CARTESIAN_POINT('',(20.989424552856,19.969412875467,
    -5.551115123126E-16));
#110 = CARTESIAN_POINT('',(21.170821006361,20.,-2.22044604925E-16));
#111 = CARTESIAN_POINT('',(20.27639320225,21.17082039325,0.5527864045));
#112 = CARTESIAN_POINT('',(20.256322312478,21.030324057993,
    0.512644624956));
#113 = CARTESIAN_POINT('',(20.251970021602,20.883150018199,
    0.474102039618));
#114 = CARTESIAN_POINT('',(20.26943615313,20.725969129115,0.439071976192
    ));
#115 = CARTESIAN_POINT('',(20.317256853825,20.575649815993,0.41179086587
    ));
#116 = CARTESIAN_POINT('',(20.405166723574,20.405166723574,
    0.398556017986));
#117 = CARTESIAN_POINT('',(20.575649815994,20.317256853825,
    0.411790865871));
#118 = CARTESIAN_POINT('',(20.725969129115,20.26943615313,0.439071976192
    ));
#119 = CARTESIAN_POINT('',(20.883150018199,20.251970021602,
    0.474102039618));
#120 = CARTESIAN_POINT('',(21.030324057994,20.256322312478,
    0.512644624956));
#121 = CARTESIAN_POINT('',(21.170820393249,20.27639320225,0.552786404499
    ));
#122 = DEFINITIONAL_REPRESENTATION('',(#123),#127);
#123 = LINE('',#124,#125);
#124 = CARTESIAN_POINT('',(0.,0.));
#125 = VECTOR('',#126,1.);
#126 = DIRECTION('',(0.,1.));
#127 = ( GEOMETRIC_REPRESENTATION_CONTEXT(2) 
PARAMETRIC_REPRESENTATION_CONTEXT() REPRESENTATION_CONTEXT('2D SPACE',''
  ) );
#128 = ORIENTED_EDGE('',*,*,#129,.T.);
#129 = EDGE_CURVE('',#57,#130,#132,.T.);
#130 = VERTEX_POINT('',#131);
#131 = CARTESIAN_POINT('',(19.381966011252,48.829177622679,0.));
#132 = SURFACE_CURVE('',#133,(#136,#142),.PCURVE_S1.);
#133 = B_SPLINE_CURVE_WITH_KNOTS('',1,(#134,#135),.UNSPECIFIED.,.F.,.F.,
  (2,2),(-3.36,33.36),.PIECEWISE_BEZIER_KNOTS.);
#134 = CARTESIAN_POINT('',(19.38196601125,16.64,0.));
#135 = CARTESIAN_POINT('',(19.38196601125,53.36,0.));
#136 = PCURVE('',#31,#137);
#137 = DEFINITIONAL_REPRESENTATION('',(#138),#141);
#138 = B_SPLINE_CURVE_WITH_KNOTS('',1,(#139,#140),.UNSPECIFIED.,.F.,.F.,
  (2,2),(-3.36,33.36),.PIECEWISE_BEZIER_KNOTS.);
#139 = CARTESIAN_POINT('',(-15.61803398875,-18.36));
#140 = CARTESIAN_POINT('',(-15.61803398875,18.36));
#141 = ( GEOMETRIC_REPRESENTATION_CONTEXT(2) 
PARAMETRIC_REPRESENTATION_CONTEXT() REPRESENTATION_CONTEXT('2D SPACE',''
  ) );
#142 = PCURVE('',#143,#150);
#143 = ( BOUNDED_SURFACE() B_SPLINE_SURFACE(2,1,(
    (#144,#145)
    ,(#146,#147)
,(#148,#149
    )),.UNSPECIFIED.,.F.,.F.,.F.) B_SPLINE_SURFACE_WITH_KNOTS((3,3),(2,2
    ),(0.,36.72),(-3.36,33.36),.PIECEWISE_BEZIER_KNOTS.) 
GEOMETRIC_REPRESENTATION_ITEM() RATIONAL_B_SPLINE_SURFACE((
    (1.,1.)
    ,(0.850650808352,0.850650808352)
,(1.,1.))) REPRESENTATION_ITEM('') SURFACE() );
#144 = CARTESIAN_POINT('',(19.38196601125,16.64,0.));
#145 = CARTESIAN_POINT('',(19.38196601125,53.36,0.));
#146 = CARTESIAN_POINT('',(20.,16.64,-4.440892098501E-16));
#147 = CARTESIAN_POINT('',(20.,53.36,-4.440892098501E-16));
#148 = CARTESIAN_POINT('',(20.27639320225,16.64,0.5527864045));
#149 = CARTESIAN_POINT('',(20.27639320225,53.36,0.5527864045));
#150 = DEFINITIONAL_REPRESENTATION('',(#151),#155);
#151 = LINE('',#152,#153);
#152 = CARTESIAN_POINT('',(0.,0.));
#153 = VECTOR('',#154,1.);
#154 = DIRECTION('',(0.,1.));
#155 = ( GEOMETRIC_REPRESENTATION_CONTEXT(2) 
PARAMETRIC_REPRESENTATION_CONTEXT() REPRESENTATION_CONTEXT('2D SPACE',''
  ) );
#156 = ORIENTED_EDGE('',*,*,#157,.F.);
#157 = EDGE_CURVE('',#158,#130,#160,.T.);
#158 = VERTEX_POINT('',#159);
#159 = CARTESIAN_POINT('',(21.170822377322,50.61803398875,0.));
#160 = SURFACE_CURVE('',#161,(#173,#188),.PCURVE_S1.);
#161 = ( BOUNDED_CURVE() B_SPLINE_CURVE(10,(#162,#163,#164,#165,#166,
    #167,#168,#169,#170,#171,#172),.UNSPECIFIED.,.F.,.F.) 
B_SPLINE_CURVE_WITH_KNOTS((11,11),(-2.218259474856E-06,1.570798545055),
.PIECEWISE_BEZIER_KNOTS.) CURVE() GEOMETRIC_REPRESENTATION_ITEM() 
RATIONAL_B_SPLINE_CURVE((1.,1.,1.,1.,1.,1.,1.,1.,1.,1.,1.)) 
REPRESENTATION_ITEM('') );
#162 = CARTESIAN_POINT('',(21.170822377322,50.61803398875,0.));
#163 = CARTESIAN_POINT('',(20.889829306108,50.618034300406,
    4.163336342344E-15));
#164 = CARTESIAN_POINT('',(20.60899220766,50.57603796109,
    -1.582067810091E-14));
#165 = CARTESIAN_POINT('',(20.332384501881,50.489450995696,
    3.30291349826E-14));
#166 = CARTESIAN_POINT('',(20.073990943704,50.355408301041,
    -4.63518112781E-14));
#167 = CARTESIAN_POINT('',(19.827141229788,50.172858770213,
    4.568567746333E-14));
#168 = CARTESIAN_POINT('',(19.644591698957,49.926009056295,
    -3.258504577275E-14));
#169 = CARTESIAN_POINT('',(19.510549004304,49.667615498119,
    1.693090112553E-14));
#170 = CARTESIAN_POINT('',(19.423962038909,49.391007792339,
    -6.383782391595E-15));
#171 = CARTESIAN_POINT('',(19.381965699594,49.110170693892,
    1.498801083244E-15));
#172 = CARTESIAN_POINT('',(19.381966011252,48.829177622679,0.));
#173 = PCURVE('',#31,#174);
#174 = DEFINITIONAL_REPRESENTATION('',(#175),#187);
#175 = ( BOUNDED_CURVE() B_SPLINE_CURVE(10,(#176,#177,#178,#179,#180,
    #181,#182,#183,#184,#185,#186),.UNSPECIFIED.,.F.,.F.) 
B_SPLINE_CURVE_WITH_KNOTS((11,11),(-2.218259474856E-06,1.570798545055),
.PIECEWISE_BEZIER_KNOTS.) CURVE() GEOMETRIC_REPRESENTATION_ITEM() 
RATIONAL_B_SPLINE_CURVE((1.,1.,1.,1.,1.,1.,1.,1.,1.,1.,1.)) 
REPRESENTATION_ITEM('') );
#176 = CARTESIAN_POINT('',(-13.82917762267,15.61803398875));
#177 = CARTESIAN_POINT('',(-14.11017069389,15.618034300406));
#178 = CARTESIAN_POINT('',(-14.39100779234,15.57603796109));
#179 = CARTESIAN_POINT('',(-14.66761549811,15.489450995696));
#180 = CARTESIAN_POINT('',(-14.92600905629,15.355408301041));
#181 = CARTESIAN_POINT('',(-15.17285877021,15.172858770213));
#182 = CARTESIAN_POINT('',(-15.35540830104,14.926009056295));
#183 = CARTESIAN_POINT('',(-15.48945099569,14.667615498119));
#184 = CARTESIAN_POINT('',(-15.57603796109,14.391007792339));
#185 = CARTESIAN_POINT('',(-15.6180343004,14.110170693892));
#186 = CARTESIAN_POINT('',(-15.61803398874,13.829177622679));
#187 = ( GEOMETRIC_REPRESENTATION_CONTEXT(2) 
PARAMETRIC_REPRESENTATION_CONTEXT() REPRESENTATION_CONTEXT('2D SPACE',''
  ) );
#188 = PCURVE('',#189,#223);
#189 = ( BOUNDED_SURFACE() B_SPLINE_SURFACE(2,10,(
    (#190,#191,#192,#193,#194,#195,#196,#197,#198,#199,#200)
    ,(#201,#202,#203,#204,#205,#206,#207,#208,#209,#210,#211)
    ,(#212,#213,#214,#215,#216,#217,#218,#219,#220,#221,#222
)),.UNSPECIFIED.,.F.,.F.,.F.) B_SPLINE_SURFACE_WITH_KNOTS((3,3),(11,11),
  (0.,1.570800763314),(-2.218259474856E-06,1.570798545055),
.PIECEWISE_BEZIER_KNOTS.) GEOMETRIC_REPRESENTATION_ITEM() 
RATIONAL_B_SPLINE_SURFACE((
    (1.,1.,1.,1.,1.,1.,1.,1.,1.,1.,1.)
    ,(0.850650808352,0.86244818136,0.87359482544,0.883551063191
      ,0.891206300064,0.894662511996,0.891206300064,0.883551063191
      ,0.87359482544,0.86244818136,0.850650808352)
,(1.,1.,1.,1.,1.,1.,1.,1.,1.,1.,1.
  ))) REPRESENTATION_ITEM('') SURFACE() );
#190 = CARTESIAN_POINT('',(21.170822377322,50.61803398875,0.));
#191 = CARTESIAN_POINT('',(20.889829306108,50.618034300406,
    4.163336342344E-15));
#192 = CARTESIAN_POINT('',(20.60899220766,50.57603796109,
    -1.582067810091E-14));
#193 = CARTESIAN_POINT('',(20.332384501881,50.489450995696,
    3.30291349826E-14));
#194 = CARTESIAN_POINT('',(20.073990943704,50.355408301041,
    -4.63518112781E-14));
#195 = CARTESIAN_POINT('',(19.827141229788,50.172858770213,
    4.568567746333E-14));
#196 = CARTESIAN_POINT('',(19.644591698957,49.926009056295,
    -3.258504577275E-14));
#197 = CARTESIAN_POINT('',(19.510549004304,49.667615498119,
    1.693090112553E-14));
#198 = CARTESIAN_POINT('',(19.423962038909,49.391007792339,
    -6.383782391595E-15));
#199 = CARTESIAN_POINT('',(19.381965699594,49.110170693892,
    1.498801083244E-15));
#200 = CARTESIAN_POINT('',(19.381966011252,48.829177622679,0.));
#201 = CARTESIAN_POINT('',(21.170821006361,50.,2.22044604925E-16));
#202 = CARTESIAN_POINT('',(20.989424552856,50.030587124533,
    -1.887379141863E-15));
#203 = CARTESIAN_POINT('',(20.796900788628,50.035605784432,
    -8.493206138382E-15));
#204 = CARTESIAN_POINT('',(20.592998776875,50.007412838268,
    2.498001805407E-14));
#205 = CARTESIAN_POINT('',(20.396386118428,49.937207433889,
    -2.520206265899E-14));
#206 = CARTESIAN_POINT('',(20.186100437546,49.813899562453,
    4.329869796038E-15));
#207 = CARTESIAN_POINT('',(20.062792566112,49.603613881571,
    1.665334536938E-14));
#208 = CARTESIAN_POINT('',(19.992587161731,49.407001223124,
    -1.804112415016E-14));
#209 = CARTESIAN_POINT('',(19.964394215569,49.203099211372,
    8.437694987151E-15));
#210 = CARTESIAN_POINT('',(19.969412875467,49.010575447143,
    -1.387778780781E-15));
#211 = CARTESIAN_POINT('',(20.,48.829178993639,-4.440892098501E-16));
#212 = CARTESIAN_POINT('',(21.17082039325,49.72360679775,0.5527864045));
#213 = CARTESIAN_POINT('',(21.030324057993,49.743677687522,
    0.512644624956));
#214 = CARTESIAN_POINT('',(20.883150018198,49.748029978398,
    0.474102039618));
#215 = CARTESIAN_POINT('',(20.725969129115,49.730563846869,
    0.439071976192));
#216 = CARTESIAN_POINT('',(20.575649815992,49.682743146176,0.41179086587
    ));
#217 = CARTESIAN_POINT('',(20.405166723575,49.594833276425,
    0.398556017987));
#218 = CARTESIAN_POINT('',(20.317256853824,49.424350184007,0.41179086587
    ));
#219 = CARTESIAN_POINT('',(20.269436153131,49.274030870885,
    0.439071976192));
#220 = CARTESIAN_POINT('',(20.251970021602,49.116849981801,
    0.474102039618));
#221 = CARTESIAN_POINT('',(20.256322312478,48.969675942006,
    0.512644624956));
#222 = CARTESIAN_POINT('',(20.27639320225,48.82917960675,0.552786404499)
  );
#223 = DEFINITIONAL_REPRESENTATION('',(#224),#228);
#224 = LINE('',#225,#226);
#225 = CARTESIAN_POINT('',(0.,0.));
#226 = VECTOR('',#227,1.);
#227 = DIRECTION('',(0.,1.));
#228 = ( GEOMETRIC_REPRESENTATION_CONTEXT(2) 
PARAMETRIC_REPRESENTATION_CONTEXT() REPRESENTATION_CONTEXT('2D SPACE',''
  ) );
#229 = ORIENTED_EDGE('',*,*,#230,.T.);
#230 = EDGE_CURVE('',#158,#231,#233,.T.);
#231 = VERTEX_POINT('',#232);
#232 = CARTESIAN_POINT('',(48.829177622678,50.61803398875,0.));
#233 = SURFACE_CURVE('',#234,(#237,#243),.PCURVE_S1.);
#234 = B_SPLINE_CURVE_WITH_KNOTS('',1,(#235,#236),.UNSPECIFIED.,.F.,.F.,
  (2,2),(-3.36,33.36),.PIECEWISE_BEZIER_KNOTS.);
#235 = CARTESIAN_POINT('',(16.64,50.61803398875,0.));
#236 = CARTESIAN_POINT('',(53.36,50.61803398875,0.));
#237 = PCURVE('',#31,#238);
#238 = DEFINITIONAL_REPRESENTATION('',(#239),#242);
#239 = B_SPLINE_CURVE_WITH_KNOTS('',1,(#240,#241),.UNSPECIFIED.,.F.,.F.,
  (2,2),(-3.36,33.36),.PIECEWISE_BEZIER_KNOTS.);
#240 = CARTESIAN_POINT('',(-18.36,15.61803398875));
#241 = CARTESIAN_POINT('',(18.36,15.61803398875));
#242 = ( GEOMETRIC_REPRESENTATION_CONTEXT(2) 
PARAMETRIC_REPRESENTATION_CONTEXT() REPRESENTATION_CONTEXT('2D SPACE',''
  ) );
#243 = PCURVE('',#244,#251);
#244 = ( BOUNDED_SURFACE() B_SPLINE_SURFACE(2,1,(
    (#245,#246)
    ,(#247,#248)
,(#249,#250
    )),.UNSPECIFIED.,.F.,.F.,.F.) B_SPLINE_SURFACE_WITH_KNOTS((3,3),(2,2
    ),(0.,36.72),(-3.36,33.36),.PIECEWISE_BEZIER_KNOTS.) 
GEOMETRIC_REPRESENTATION_ITEM() RATIONAL_B_SPLINE_SURFACE((
    (1.,1.)
    ,(0.850650808352,0.850650808352)
,(1.,1.))) REPRESENTATION_ITEM('') SURFACE() );
#245 = CARTESIAN_POINT('',(16.64,50.61803398875,0.));
#246 = CARTESIAN_POINT('',(53.36,50.61803398875,0.));
#247 = CARTESIAN_POINT('',(16.64,50.,4.440892098501E-16));
#248 = CARTESIAN_POINT('',(53.36,50.,4.440892098501E-16));
#249 = CARTESIAN_POINT('',(16.64,49.72360679775,0.5527864045));
#250 = CARTESIAN_POINT('',(53.36,49.72360679775,0.5527864045));
#251 = DEFINITIONAL_REPRESENTATION('',(#252),#256);
#252 = LINE('',#253,#254);
#253 = CARTESIAN_POINT('',(0.,0.));
#254 = VECTOR('',#255,1.);
#255 = DIRECTION('',(0.,1.));
#256 = ( GEOMETRIC_REPRESENTATION_CONTEXT(2) 
PARAMETRIC_REPRESENTATION_CONTEXT() REPRESENTATION_CONTEXT('2D SPACE',''
  ) );
#257 = ORIENTED_EDGE('',*,*,#258,.T.);
#258 = EDGE_CURVE('',#231,#259,#261,.T.);
#259 = VERTEX_POINT('',#260);
#260 = CARTESIAN_POINT('',(50.618033988748,48.829177622679,0.));
#261 = SURFACE_CURVE('',#262,(#274,#289),.PCURVE_S1.);
#262 = ( BOUNDED_CURVE() B_SPLINE_CURVE(10,(#263,#264,#265,#266,#267,
    #268,#269,#270,#271,#272,#273),.UNSPECIFIED.,.F.,.F.) 
B_SPLINE_CURVE_WITH_KNOTS((11,11),(-2.218259475787E-06,1.570798545055),
.PIECEWISE_BEZIER_KNOTS.) CURVE() GEOMETRIC_REPRESENTATION_ITEM() 
RATIONAL_B_SPLINE_CURVE((1.,1.,1.,1.,1.,1.,1.,1.,1.,1.,1.)) 
REPRESENTATION_ITEM('') );
#263 = CARTESIAN_POINT('',(48.829177622678,50.61803398875,0.));
#264 = CARTESIAN_POINT('',(49.110170693892,50.618034300406,
    3.330669073875E-15));
#265 = CARTESIAN_POINT('',(49.39100779234,50.57603796109,
    -1.343369859796E-14));
#266 = CARTESIAN_POINT('',(49.667615498119,50.489450995695,
    3.297362383137E-14));
#267 = CARTESIAN_POINT('',(49.926009056295,50.355408301042,
    -5.662137425588E-14));
#268 = CARTESIAN_POINT('',(50.172858770213,50.172858770212,
    7.116529587847E-14));
#269 = CARTESIAN_POINT('',(50.355408301042,49.926009056296,
    -6.639133687258E-14));
#270 = CARTESIAN_POINT('',(50.489450995696,49.667615498118,
    4.468647674116E-14));
#271 = CARTESIAN_POINT('',(50.576037961091,49.39100779234,
    -2.026157019941E-14));
#272 = CARTESIAN_POINT('',(50.618034300406,49.110170693892,
    5.162537064507E-15));
#273 = CARTESIAN_POINT('',(50.618033988748,48.829177622679,0.));
#274 = PCURVE('',#31,#275);
#275 = DEFINITIONAL_REPRESENTATION('',(#276),#288);
#276 = ( BOUNDED_CURVE() B_SPLINE_CURVE(10,(#277,#278,#279,#280,#281,
    #282,#283,#284,#285,#286,#287),.UNSPECIFIED.,.F.,.F.) 
B_SPLINE_CURVE_WITH_KNOTS((11,11),(-2.218259475787E-06,1.570798545055),
.PIECEWISE_BEZIER_KNOTS.) CURVE() GEOMETRIC_REPRESENTATION_ITEM() 
RATIONAL_B_SPLINE_CURVE((1.,1.,1.,1.,1.,1.,1.,1.,1.,1.,1.)) 
REPRESENTATION_ITEM('') );
#277 = CARTESIAN_POINT('',(13.829177622678,15.61803398875));
#278 = CARTESIAN_POINT('',(14.110170693892,15.618034300406));
#279 = CARTESIAN_POINT('',(14.39100779234,15.57603796109));
#280 = CARTESIAN_POINT('',(14.667615498119,15.489450995695));
#281 = CARTESIAN_POINT('',(14.926009056295,15.355408301042));
#282 = CARTESIAN_POINT('',(15.172858770213,15.172858770212));
#283 = CARTESIAN_POINT('',(15.355408301042,14.926009056296));
#284 = CARTESIAN_POINT('',(15.489450995696,14.667615498118));
#285 = CARTESIAN_POINT('',(15.576037961091,14.39100779234));
#286 = CARTESIAN_POINT('',(15.618034300406,14.110170693892));
#287 = CARTESIAN_POINT('',(15.618033988748,13.829177622679));
#288 = ( GEOMETRIC_REPRESENTATION_CONTEXT(2) 
PARAMETRIC_REPRESENTATION_CONTEXT() REPRESENTATION_CONTEXT('2D SPACE',''
  ) );
#289 = PCURVE('',#290,#324);
#290 = ( BOUNDED_SURFACE() B_SPLINE_SURFACE(2,10,(
    (#291,#292,#293,#294,#295,#296,#297,#298,#299,#300,#301)
    ,(#302,#303,#304,#305,#306,#307,#308,#309,#310,#311,#312)
    ,(#313,#314,#315,#316,#317,#318,#319,#320,#321,#322,#323
)),.UNSPECIFIED.,.F.,.F.,.F.) B_SPLINE_SURFACE_WITH_KNOTS((3,3),(11,11),
  (0.,1.570800763314),(-2.218259475787E-06,1.570798545055),
.PIECEWISE_BEZIER_KNOTS.) GEOMETRIC_REPRESENTATION_ITEM() 
RATIONAL_B_SPLINE_SURFACE((
    (1.,1.,1.,1.,1.,1.,1.,1.,1.,1.,1.)
    ,(0.850650808352,0.86244818136,0.87359482544,0.883551063191
      ,0.891206300064,0.894662511996,0.891206300064,0.883551063191
      ,0.87359482544,0.86244818136,0.850650808352)
,(1.,1.,1.,1.,1.,1.,1.,1.,1.,1.,1.
  ))) REPRESENTATION_ITEM('') SURFACE() );
#291 = CARTESIAN_POINT('',(48.829177622678,50.61803398875,0.));
#292 = CARTESIAN_POINT('',(49.110170693892,50.618034300406,
    3.330669073875E-15));
#293 = CARTESIAN_POINT('',(49.39100779234,50.57603796109,
    -1.343369859796E-14));
#294 = CARTESIAN_POINT('',(49.667615498119,50.489450995695,
    3.297362383137E-14));
#295 = CARTESIAN_POINT('',(49.926009056295,50.355408301042,
    -5.662137425588E-14));
#296 = CARTESIAN_POINT('',(50.172858770213,50.172858770212,
    7.116529587847E-14));
#297 = CARTESIAN_POINT('',(50.355408301042,49.926009056296,
    -6.639133687258E-14));
#298 = CARTESIAN_POINT('',(50.489450995696,49.667615498118,
    4.468647674116E-14));
#299 = CARTESIAN_POINT('',(50.576037961091,49.39100779234,
    -2.026157019941E-14));
#300 = CARTESIAN_POINT('',(50.618034300406,49.110170693892,
    5.162537064507E-15));
#301 = CARTESIAN_POINT('',(50.618033988748,48.829177622679,0.));
#302 = CARTESIAN_POINT('',(48.829178993639,50.,4.440892098501E-16));
#303 = CARTESIAN_POINT('',(49.010575447144,50.030587124533,
    -1.110223024625E-15));
#304 = CARTESIAN_POINT('',(49.203099211372,50.035605784431,
    -8.271161533457E-15));
#305 = CARTESIAN_POINT('',(49.407001223125,50.007412838269,
    3.519406988062E-14));
#306 = CARTESIAN_POINT('',(49.603613881571,49.937207433887,
    -7.333023077649E-14));
#307 = CARTESIAN_POINT('',(49.813899562455,49.813899562454,
    9.636735853746E-14));
#308 = CARTESIAN_POINT('',(49.937207433888,49.603613881571,
    -8.121281425133E-14));
#309 = CARTESIAN_POINT('',(50.007412838269,49.407001223124,
    4.063416270128E-14));
#310 = CARTESIAN_POINT('',(50.035605784431,49.203099211372,
    -9.159339953158E-15));
#311 = CARTESIAN_POINT('',(50.030587124533,49.010575447144,
    -5.551115123126E-17));
#312 = CARTESIAN_POINT('',(50.,48.829178993639,2.775557561563E-16));
#313 = CARTESIAN_POINT('',(48.82917960675,49.72360679775,0.5527864045));
#314 = CARTESIAN_POINT('',(48.969675942007,49.743677687522,
    0.512644624956));
#315 = CARTESIAN_POINT('',(49.116849981801,49.748029978398,
    0.474102039618));
#316 = CARTESIAN_POINT('',(49.274030870885,49.73056384687,0.439071976192
    ));
#317 = CARTESIAN_POINT('',(49.424350184007,49.682743146175,0.41179086587
    ));
#318 = CARTESIAN_POINT('',(49.594833276426,49.594833276426,
    0.398556017986));
#319 = CARTESIAN_POINT('',(49.682743146175,49.424350184007,0.41179086587
    ));
#320 = CARTESIAN_POINT('',(49.73056384687,49.274030870885,0.439071976192
    ));
#321 = CARTESIAN_POINT('',(49.748029978398,49.116849981801,
    0.474102039618));
#322 = CARTESIAN_POINT('',(49.743677687522,48.969675942006,
    0.512644624956));
#323 = CARTESIAN_POINT('',(49.72360679775,48.829179606751,0.552786404499
    ));
#324 = DEFINITIONAL_REPRESENTATION('',(#325),#329);
#325 = LINE('',#326,#327);
#326 = CARTESIAN_POINT('',(0.,0.));
#327 = VECTOR('',#328,1.);
#328 = DIRECTION('',(0.,1.));
#329 = ( GEOMETRIC_REPRESENTATION_CONTEXT(2) 
PARAMETRIC_REPRESENTATION_CONTEXT() REPRESENTATION_CONTEXT('2D SPACE',''
  ) );
#330 = ORIENTED_EDGE('',*,*,#331,.T.);
#331 = EDGE_CURVE('',#259,#332,#334,.T.);
#332 = VERTEX_POINT('',#333);
#333 = CARTESIAN_POINT('',(50.61803398875,21.170822377322,0.));
#334 = SURFACE_CURVE('',#335,(#338,#344),.PCURVE_S1.);
#335 = B_SPLINE_CURVE_WITH_KNOTS('',1,(#336,#337),.UNSPECIFIED.,.F.,.F.,
  (2,2),(-3.36,33.36),.PIECEWISE_BEZIER_KNOTS.);
#336 = CARTESIAN_POINT('',(50.61803398875,53.36,0.));
#337 = CARTESIAN_POINT('',(50.61803398875,16.64,0.));
#338 = PCURVE('',#31,#339);
#339 = DEFINITIONAL_REPRESENTATION('',(#340),#343);
#340 = B_SPLINE_CURVE_WITH_KNOTS('',1,(#341,#342),.UNSPECIFIED.,.F.,.F.,
  (2,2),(-3.36,33.36),.PIECEWISE_BEZIER_KNOTS.);
#341 = CARTESIAN_POINT('',(15.61803398875,18.36));
#342 = CARTESIAN_POINT('',(15.61803398875,-18.36));
#343 = ( GEOMETRIC_REPRESENTATION_CONTEXT(2) 
PARAMETRIC_REPRESENTATION_CONTEXT() REPRESENTATION_CONTEXT('2D SPACE',''
  ) );
#344 = PCURVE('',#345,#352);
#345 = ( BOUNDED_SURFACE() B_SPLINE_SURFACE(2,1,(
    (#346,#347)
    ,(#348,#349)
,(#350,#351
    )),.UNSPECIFIED.,.F.,.F.,.F.) B_SPLINE_SURFACE_WITH_KNOTS((3,3),(2,2
    ),(0.,36.72),(-3.36,33.36),.PIECEWISE_BEZIER_KNOTS.) 
GEOMETRIC_REPRESENTATION_ITEM() RATIONAL_B_SPLINE_SURFACE((
    (1.,1.)
    ,(0.850650808352,0.850650808352)
,(1.,1.))) REPRESENTATION_ITEM('') SURFACE() );
#346 = CARTESIAN_POINT('',(50.61803398875,53.36,0.));
#347 = CARTESIAN_POINT('',(50.61803398875,16.64,0.));
#348 = CARTESIAN_POINT('',(50.,53.36,-7.216449660064E-16));
#349 = CARTESIAN_POINT('',(50.,16.64,6.661338147751E-16));
#350 = CARTESIAN_POINT('',(49.72360679775,53.36,0.5527864045));
#351 = CARTESIAN_POINT('',(49.72360679775,16.64,0.5527864045));
#352 = DEFINITIONAL_REPRESENTATION('',(#353),#357);
#353 = LINE('',#354,#355);
#354 = CARTESIAN_POINT('',(0.,0.));
#355 = VECTOR('',#356,1.);
#356 = DIRECTION('',(0.,1.));
#357 = ( GEOMETRIC_REPRESENTATION_CONTEXT(2) 
PARAMETRIC_REPRESENTATION_CONTEXT() REPRESENTATION_CONTEXT('2D SPACE',''
  ) );
#358 = ORIENTED_EDGE('',*,*,#359,.T.);
#359 = EDGE_CURVE('',#332,#22,#360,.T.);
#360 = SURFACE_CURVE('',#361,(#373,#388),.PCURVE_S1.);
#361 = ( BOUNDED_CURVE() B_SPLINE_CURVE(10,(#362,#363,#364,#365,#366,
    #367,#368,#369,#370,#371,#372),.UNSPECIFIED.,.F.,.F.) 
B_SPLINE_CURVE_WITH_KNOTS((11,11),(-2.218259482335E-06,1.570798545055),
.PIECEWISE_BEZIER_KNOTS.) CURVE() GEOMETRIC_REPRESENTATION_ITEM() 
RATIONAL_B_SPLINE_CURVE((1.,1.,1.,1.,1.,1.,1.,1.,1.,1.,1.)) 
REPRESENTATION_ITEM('') );
#362 = CARTESIAN_POINT('',(50.61803398875,21.170822377322,0.));
#363 = CARTESIAN_POINT('',(50.618034300406,20.889829306108,0.));
#364 = CARTESIAN_POINT('',(50.576037961091,20.60899220766,
    2.775557561563E-16));
#365 = CARTESIAN_POINT('',(50.489450995695,20.332384501882,
    -2.498001805407E-15));
#366 = CARTESIAN_POINT('',(50.355408301043,20.073990943704,
    6.827871601445E-15));
#367 = CARTESIAN_POINT('',(50.172858770211,19.827141229788,
    -9.71445146547E-15));
#368 = CARTESIAN_POINT('',(49.926009056296,19.644591698957,
    8.271161533457E-15));
#369 = CARTESIAN_POINT('',(49.667615498118,19.510549004304,
    -4.329869796038E-15));
#370 = CARTESIAN_POINT('',(49.39100779234,19.423962038909,
    1.276756478319E-15));
#371 = CARTESIAN_POINT('',(49.110170693892,19.381965699594,
    -2.775557561563E-16));
#372 = CARTESIAN_POINT('',(48.829177622679,19.381966011252,0.));
#373 = PCURVE('',#31,#374);
#374 = DEFINITIONAL_REPRESENTATION('',(#375),#387);
#375 = ( BOUNDED_CURVE() B_SPLINE_CURVE(10,(#376,#377,#378,#379,#380,
    #381,#382,#383,#384,#385,#386),.UNSPECIFIED.,.F.,.F.) 
B_SPLINE_CURVE_WITH_KNOTS((11,11),(-2.218259482335E-06,1.570798545055),
.PIECEWISE_BEZIER_KNOTS.) CURVE() GEOMETRIC_REPRESENTATION_ITEM() 
RATIONAL_B_SPLINE_CURVE((1.,1.,1.,1.,1.,1.,1.,1.,1.,1.,1.)) 
REPRESENTATION_ITEM('') );
#376 = CARTESIAN_POINT('',(15.61803398875,-13.82917762267));
#377 = CARTESIAN_POINT('',(15.618034300406,-14.11017069389));
#378 = CARTESIAN_POINT('',(15.576037961091,-14.39100779234));
#379 = CARTESIAN_POINT('',(15.489450995695,-14.66761549811));
#380 = CARTESIAN_POINT('',(15.355408301043,-14.92600905629));
#381 = CARTESIAN_POINT('',(15.172858770211,-15.17285877021));
#382 = CARTESIAN_POINT('',(14.926009056296,-15.35540830104));
#383 = CARTESIAN_POINT('',(14.667615498118,-15.48945099569));
#384 = CARTESIAN_POINT('',(14.39100779234,-15.57603796109));
#385 = CARTESIAN_POINT('',(14.110170693892,-15.6180343004));
#386 = CARTESIAN_POINT('',(13.829177622679,-15.61803398874));
#387 = ( GEOMETRIC_REPRESENTATION_CONTEXT(2) 
PARAMETRIC_REPRESENTATION_CONTEXT() REPRESENTATION_CONTEXT('2D SPACE',''
  ) );
#388 = PCURVE('',#389,#423);
#389 = ( BOUNDED_SURFACE() B_SPLINE_SURFACE(2,10,(
    (#390,#391,#392,#393,#394,#395,#396,#397,#398,#399,#400)
    ,(#401,#402,#403,#404,#405,#406,#407,#408,#409,#410,#411)
    ,(#412,#413,#414,#415,#416,#417,#418,#419,#420,#421,#422
)),.UNSPECIFIED.,.F.,.F.,.F.) B_SPLINE_SURFACE_WITH_KNOTS((3,3),(11,11),
  (0.,1.570800763314),(-2.218259482335E-06,1.570798545055),
.PIECEWISE_BEZIER_KNOTS.) GEOMETRIC_REPRESENTATION_ITEM() 
RATIONAL_B_SPLINE_SURFACE((
    (1.,1.,1.,1.,1.,1.,1.,1.,1.,1.,1.)
    ,(0.850650808352,0.86244818136,0.87359482544,0.88355106319
      ,0.891206300065,0.894662511996,0.891206300065,0.883551063191
      ,0.87359482544,0.86244818136,0.850650808352)
,(1.,1.,1.,1.,1.,1.,1.,1.,1.,1.,1.
  ))) REPRESENTATION_ITEM('') SURFACE() );
#390 = CARTESIAN_POINT('',(50.61803398875,21.170822377322,0.));
#391 = CARTESIAN_POINT('',(50.618034300406,20.889829306108,0.));
#392 = CARTESIAN_POINT('',(50.576037961091,20.60899220766,
    2.775557561563E-16));
#393 = CARTESIAN_POINT('',(50.489450995695,20.332384501882,
    -2.498001805407E-15));
#394 = CARTESIAN_POINT('',(50.355408301043,20.073990943704,
    6.827871601445E-15));
#395 = CARTESIAN_POINT('',(50.172858770211,19.827141229788,
    -9.71445146547E-15));
#396 = CARTESIAN_POINT('',(49.926009056296,19.644591698957,
    8.271161533457E-15));
#397 = CARTESIAN_POINT('',(49.667615498118,19.510549004304,
    -4.329869796038E-15));
#398 = CARTESIAN_POINT('',(49.39100779234,19.423962038909,
    1.276756478319E-15));
#399 = CARTESIAN_POINT('',(49.110170693892,19.381965699594,
    -2.775557561563E-16));
#400 = CARTESIAN_POINT('',(48.829177622679,19.381966011252,0.));
#401 = CARTESIAN_POINT('',(50.,21.170821006361,1.665334536938E-16));
#402 = CARTESIAN_POINT('',(50.030587124533,20.989424552856,
    -1.831867990632E-15));
#403 = CARTESIAN_POINT('',(50.035605784431,20.796900788628,
    6.217248937901E-15));
#404 = CARTESIAN_POINT('',(50.007412838269,20.592998776876,
    -1.365574320289E-14));
#405 = CARTESIAN_POINT('',(49.937207433888,20.396386118428,
    1.199040866595E-14));
#406 = CARTESIAN_POINT('',(49.813899562453,20.186100437547,
    -2.331468351713E-15));
#407 = CARTESIAN_POINT('',(49.603613881572,20.062792566112,
    -2.6645352591E-15));
#408 = CARTESIAN_POINT('',(49.407001223124,19.992587161731,
    -2.275957200482E-15));
#409 = CARTESIAN_POINT('',(49.203099211372,19.964394215569,
    4.940492459582E-15));
#410 = CARTESIAN_POINT('',(49.010575447143,19.969412875467,
    -1.665334536938E-15));
#411 = CARTESIAN_POINT('',(48.829178993639,20.,3.330669073875E-16));
#412 = CARTESIAN_POINT('',(49.72360679775,21.17082039325,0.5527864045));
#413 = CARTESIAN_POINT('',(49.743677687522,21.030324057993,
    0.512644624956));
#414 = CARTESIAN_POINT('',(49.748029978398,20.883150018198,
    0.474102039618));
#415 = CARTESIAN_POINT('',(49.730563846869,20.725969129116,
    0.439071976192));
#416 = CARTESIAN_POINT('',(49.682743146176,20.575649815992,0.41179086587
    ));
#417 = CARTESIAN_POINT('',(49.594833276424,20.405166723575,
    0.398556017987));
#418 = CARTESIAN_POINT('',(49.424350184008,20.317256853824,0.41179086587
    ));
#419 = CARTESIAN_POINT('',(49.274030870884,20.26943615313,0.439071976192
    ));
#420 = CARTESIAN_POINT('',(49.116849981801,20.251970021602,
    0.474102039618));
#421 = CARTESIAN_POINT('',(48.969675942006,20.256322312478,
    0.512644624956));
#422 = CARTESIAN_POINT('',(48.82917960675,20.27639320225,0.552786404499)
  );
#423 = DEFINITIONAL_REPRESENTATION('',(#424),#428);
#424 = LINE('',#425,#426);
#425 = CARTESIAN_POINT('',(0.,0.));
#426 = VECTOR('',#427,1.);
#427 = DIRECTION('',(0.,1.));
#428 = ( GEOMETRIC_REPRESENTATION_CONTEXT(2) 
PARAMETRIC_REPRESENTATION_CONTEXT() REPRESENTATION_CONTEXT('2D SPACE',''
  ) );
#429 = FACE_BOUND('',#430,.T.);
#430 = EDGE_LOOP('',(#431,#461,#489,#517));
#431 = ORIENTED_EDGE('',*,*,#432,.T.);
#432 = EDGE_CURVE('',#433,#435,#437,.T.);
#433 = VERTEX_POINT('',#434);
#434 = CARTESIAN_POINT('',(0.,0.,0.));
#435 = VERTEX_POINT('',#436);
#436 = CARTESIAN_POINT('',(70.,0.,0.));
#437 = SURFACE_CURVE('',#438,(#442,#449),.PCURVE_S1.);
#438 = LINE('',#439,#440);
#439 = CARTESIAN_POINT('',(0.,0.,0.));
#440 = VECTOR('',#441,1.);
#441 = DIRECTION('',(1.,0.,0.));
#442 = PCURVE('',#31,#443);
#443 = DEFINITIONAL_REPRESENTATION('',(#444),#448);
#444 = LINE('',#445,#446);
#445 = CARTESIAN_POINT('',(-35.,-35.));
#446 = VECTOR('',#447,1.);
#447 = DIRECTION('',(1.,0.));
#448 = ( GEOMETRIC_REPRESENTATION_CONTEXT(2) 
PARAMETRIC_REPRESENTATION_CONTEXT() REPRESENTATION_CONTEXT('2D SPACE',''
  ) );
#449 = PCURVE('',#450,#455);
#450 = PLANE('',#451);
#451 = AXIS2_PLACEMENT_3D('',#452,#453,#454);
#452 = CARTESIAN_POINT('',(0.,0.,0.));
#453 = DIRECTION('',(0.,-1.,0.));
#454 = DIRECTION('',(1.,0.,0.));
#455 = DEFINITIONAL_REPRESENTATION('',(#456),#460);
#456 = LINE('',#457,#458);
#457 = CARTESIAN_POINT('',(0.,0.));
#458 = VECTOR('',#459,1.);
#459 = DIRECTION('',(1.,0.));
#460 = ( GEOMETRIC_REPRESENTATION_CONTEXT(2) 
PARAMETRIC_REPRESENTATION_CONTEXT() REPRESENTATION_CONTEXT('2D SPACE',''
  ) );
#461 = ORIENTED_EDGE('',*,*,#462,.T.);
#462 = EDGE_CURVE('',#435,#463,#465,.T.);
#463 = VERTEX_POINT('',#464);
#464 = CARTESIAN_POINT('',(70.,70.,0.));
#465 = SURFACE_CURVE('',#466,(#470,#477),.PCURVE_S1.);
#466 = LINE('',#467,#468);
#467 = CARTESIAN_POINT('',(70.,0.,0.));
#468 = VECTOR('',#469,1.);
#469 = DIRECTION('',(0.,1.,0.));
#470 = PCURVE('',#31,#471);
#471 = DEFINITIONAL_REPRESENTATION('',(#472),#476);
#472 = LINE('',#473,#474);
#473 = CARTESIAN_POINT('',(35.,-35.));
#474 = VECTOR('',#475,1.);
#475 = DIRECTION('',(0.,1.));
#476 = ( GEOMETRIC_REPRESENTATION_CONTEXT(2) 
PARAMETRIC_REPRESENTATION_CONTEXT() REPRESENTATION_CONTEXT('2D SPACE',''
  ) );
#477 = PCURVE('',#478,#483);
#478 = PLANE('',#479);
#479 = AXIS2_PLACEMENT_3D('',#480,#481,#482);
#480 = CARTESIAN_POINT('',(70.,0.,0.));
#481 = DIRECTION('',(1.,0.,0.));
#482 = DIRECTION('',(0.,1.,0.));
#483 = DEFINITIONAL_REPRESENTATION('',(#484),#488);
#484 = LINE('',#485,#486);
#485 = CARTESIAN_POINT('',(0.,0.));
#486 = VECTOR('',#487,1.);
#487 = DIRECTION('',(1.,0.));
#488 = ( GEOMETRIC_REPRESENTATION_CONTEXT(2) 
PARAMETRIC_REPRESENTATION_CONTEXT() REPRESENTATION_CONTEXT('2D SPACE',''
  ) );
#489 = ORIENTED_EDGE('',*,*,#490,.T.);
#490 = EDGE_CURVE('',#463,#491,#493,.T.);
#491 = VERTEX_POINT('',#492);
#492 = CARTESIAN_POINT('',(0.,70.,0.));
#493 = SURFACE_CURVE('',#494,(#498,#505),.PCURVE_S1.);
#494 = LINE('',#495,#496);
#495 = CARTESIAN_POINT('',(70.,70.,0.));
#496 = VECTOR('',#497,1.);
#497 = DIRECTION('',(-1.,0.,0.));
#498 = PCURVE('',#31,#499);
#499 = DEFINITIONAL_REPRESENTATION('',(#500),#504);
#500 = LINE('',#501,#502);
#501 = CARTESIAN_POINT('',(35.,35.));
#502 = VECTOR('',#503,1.);
#503 = DIRECTION('',(-1.,0.));
#504 = ( GEOMETRIC_REPRESENTATION_CONTEXT(2) 
PARAMETRIC_REPRESENTATION_CONTEXT() REPRESENTATION_CONTEXT('2D SPACE',''
  ) );
#505 = PCURVE('',#506,#511);
#506 = PLANE('',#507);
#507 = AXIS2_PLACEMENT_3D('',#508,#509,#510);
#508 = CARTESIAN_POINT('',(70.,70.,0.));
#509 = DIRECTION('',(0.,1.,0.));
#510 = DIRECTION('',(-1.,0.,0.));
#511 = DEFINITIONAL_REPRESENTATION('',(#512),#516);
#512 = LINE('',#513,#514);
#513 = CARTESIAN_POINT('',(0.,0.));
#514 = VECTOR('',#515,1.);
#515 = DIRECTION('',(1.,0.));
#516 = ( GEOMETRIC_REPRESENTATION_CONTEXT(2) 
PARAMETRIC_REPRESENTATION_CONTEXT() REPRESENTATION_CONTEXT('2D SPACE',''
  ) );
#517 = ORIENTED_EDGE('',*,*,#518,.T.);
#518 = EDGE_CURVE('',#491,#433,#519,.T.);
#519 = SURFACE_CURVE('',#520,(#524,#531),.PCURVE_S1.);
#520 = LINE('',#521,#522);
#521 = CARTESIAN_POINT('',(0.,70.,0.));
#522 = VECTOR('',#523,1.);
#523 = DIRECTION('',(0.,-1.,0.));
#524 = PCURVE('',#31,#525);
#525 = DEFINITIONAL_REPRESENTATION('',(#526),#530);
#526 = LINE('',#527,#528);
#527 = CARTESIAN_POINT('',(-35.,35.));
#528 = VECTOR('',#529,1.);
#529 = DIRECTION('',(0.,-1.));
#530 = ( GEOMETRIC_REPRESENTATION_CONTEXT(2) 
PARAMETRIC_REPRESENTATION_CONTEXT() REPRESENTATION_CONTEXT('2D SPACE',''
  ) );
#531 = PCURVE('',#532,#537);
#532 = PLANE('',#533);
#533 = AXIS2_PLACEMENT_3D('',#534,#535,#536);
#534 = CARTESIAN_POINT('',(0.,70.,0.));
#535 = DIRECTION('',(-1.,0.,0.));
#536 = DIRECTION('',(0.,-1.,0.));
#537 = DEFINITIONAL_REPRESENTATION('',(#538),#542);
#538 = LINE('',#539,#540);
#539 = CARTESIAN_POINT('',(0.,0.));
#540 = VECTOR('',#541,1.);
#541 = DIRECTION('',(1.,0.));
#542 = ( GEOMETRIC_REPRESENTATION_CONTEXT(2) 
PARAMETRIC_REPRESENTATION_CONTEXT() REPRESENTATION_CONTEXT('2D SPACE',''
  ) );
#543 = ADVANCED_FACE('',(#544),#42,.T.);
#544 = FACE_BOUND('',#545,.T.);
#545 = EDGE_LOOP('',(#546,#568,#594,#614));
#546 = ORIENTED_EDGE('',*,*,#547,.T.);
#547 = EDGE_CURVE('',#22,#548,#550,.T.);
#548 = VERTEX_POINT('',#549);
#549 = CARTESIAN_POINT('',(48.82917960675,20.27639320225,0.552786404499)
  );
#550 = SURFACE_CURVE('',#551,(#555,#561),.PCURVE_S1.);
#551 = ( BOUNDED_CURVE() B_SPLINE_CURVE(2,(#552,#553,#554),
.UNSPECIFIED.,.F.,.F.) B_SPLINE_CURVE_WITH_KNOTS((3,3),(0.,
1.570800763314),.PIECEWISE_BEZIER_KNOTS.) CURVE() 
GEOMETRIC_REPRESENTATION_ITEM() RATIONAL_B_SPLINE_CURVE((1.,
0.850650808352,1.)) REPRESENTATION_ITEM('') );
#552 = CARTESIAN_POINT('',(48.829177622679,19.381966011252,0.));
#553 = CARTESIAN_POINT('',(48.829178993639,20.,3.330669073875E-16));
#554 = CARTESIAN_POINT('',(48.82917960675,20.27639320225,0.552786404499)
  );
#555 = PCURVE('',#42,#556);
#556 = DEFINITIONAL_REPRESENTATION('',(#557),#560);
#557 = B_SPLINE_CURVE_WITH_KNOTS('',1,(#558,#559),.UNSPECIFIED.,.F.,.F.,
  (2,2),(0.,1.570800763314),.PIECEWISE_BEZIER_KNOTS.);
#558 = CARTESIAN_POINT('',(0.,1.170818409182));
#559 = CARTESIAN_POINT('',(36.72,1.170818409182));
#560 = ( GEOMETRIC_REPRESENTATION_CONTEXT(2) 
PARAMETRIC_REPRESENTATION_CONTEXT() REPRESENTATION_CONTEXT('2D SPACE',''
  ) );
#561 = PCURVE('',#389,#562);
#562 = DEFINITIONAL_REPRESENTATION('',(#563),#567);
#563 = LINE('',#564,#565);
#564 = CARTESIAN_POINT('',(0.,1.570798545055));
#565 = VECTOR('',#566,1.);
#566 = DIRECTION('',(1.,0.));
#567 = ( GEOMETRIC_REPRESENTATION_CONTEXT(2) 
PARAMETRIC_REPRESENTATION_CONTEXT() REPRESENTATION_CONTEXT('2D SPACE',''
  ) );
#568 = ORIENTED_EDGE('',*,*,#569,.T.);
#569 = EDGE_CURVE('',#548,#570,#572,.T.);
#570 = VERTEX_POINT('',#571);
#571 = CARTESIAN_POINT('',(21.170820393249,20.27639320225,0.552786404499
    ));
#572 = SURFACE_CURVE('',#573,(#576,#583),.PCURVE_S1.);
#573 = B_SPLINE_CURVE_WITH_KNOTS('',1,(#574,#575),.UNSPECIFIED.,.F.,.F.,
  (2,2),(-3.36,33.36),.PIECEWISE_BEZIER_KNOTS.);
#574 = CARTESIAN_POINT('',(53.36,20.27639320225,0.5527864045));
#575 = CARTESIAN_POINT('',(16.64,20.27639320225,0.5527864045));
#576 = PCURVE('',#42,#577);
#577 = DEFINITIONAL_REPRESENTATION('',(#578),#582);
#578 = LINE('',#579,#580);
#579 = CARTESIAN_POINT('',(36.72,0.));
#580 = VECTOR('',#581,1.);
#581 = DIRECTION('',(0.,1.));
#582 = ( GEOMETRIC_REPRESENTATION_CONTEXT(2) 
PARAMETRIC_REPRESENTATION_CONTEXT() REPRESENTATION_CONTEXT('2D SPACE',''
  ) );
#583 = PCURVE('',#584,#589);
#584 = B_SPLINE_SURFACE_WITH_KNOTS('',1,1,(
    (#585,#586)
    ,(#587,#588
  )),.UNSPECIFIED.,.F.,.F.,.F.,(2,2),(2,2),(0.,30.),(0.,1.),
  .PIECEWISE_BEZIER_KNOTS.);
#585 = CARTESIAN_POINT('',(50.,20.,0.));
#586 = CARTESIAN_POINT('',(45.,25.,10.));
#587 = CARTESIAN_POINT('',(20.,20.,0.));
#588 = CARTESIAN_POINT('',(25.,25.,10.));
#589 = DEFINITIONAL_REPRESENTATION('',(#590),#593);
#590 = B_SPLINE_CURVE_WITH_KNOTS('',1,(#591,#592),.UNSPECIFIED.,.F.,.F.,
  (2,2),(-3.36,33.36),.PIECEWISE_BEZIER_KNOTS.);
#591 = CARTESIAN_POINT('',(-3.704655984299,5.527864045E-02));
#592 = CARTESIAN_POINT('',(33.704655984299,5.527864045E-02));
#593 = ( GEOMETRIC_REPRESENTATION_CONTEXT(2) 
PARAMETRIC_REPRESENTATION_CONTEXT() REPRESENTATION_CONTEXT('2D SPACE',''
  ) );
#594 = ORIENTED_EDGE('',*,*,#595,.F.);
#595 = EDGE_CURVE('',#24,#570,#596,.T.);
#596 = SURFACE_CURVE('',#597,(#601,#607),.PCURVE_S1.);
#597 = ( BOUNDED_CURVE() B_SPLINE_CURVE(2,(#598,#599,#600),
.UNSPECIFIED.,.F.,.F.) B_SPLINE_CURVE_WITH_KNOTS((3,3),(0.,
1.570800763314),.PIECEWISE_BEZIER_KNOTS.) CURVE() 
GEOMETRIC_REPRESENTATION_ITEM() RATIONAL_B_SPLINE_CURVE((1.,
0.850650808352,1.)) REPRESENTATION_ITEM('') );
#598 = CARTESIAN_POINT('',(21.170822377321,19.381966011252,0.));
#599 = CARTESIAN_POINT('',(21.170821006361,20.,-2.22044604925E-16));
#600 = CARTESIAN_POINT('',(21.170820393249,20.27639320225,0.552786404499
    ));
#601 = PCURVE('',#42,#602);
#602 = DEFINITIONAL_REPRESENTATION('',(#603),#606);
#603 = B_SPLINE_CURVE_WITH_KNOTS('',1,(#604,#605),.UNSPECIFIED.,.F.,.F.,
  (2,2),(0.,1.570800763314),.PIECEWISE_BEZIER_KNOTS.);
#604 = CARTESIAN_POINT('',(0.,28.829181590818));
#605 = CARTESIAN_POINT('',(36.72,28.829181590818));
#606 = ( GEOMETRIC_REPRESENTATION_CONTEXT(2) 
PARAMETRIC_REPRESENTATION_CONTEXT() REPRESENTATION_CONTEXT('2D SPACE',''
  ) );
#607 = PCURVE('',#88,#608);
#608 = DEFINITIONAL_REPRESENTATION('',(#609),#613);
#609 = LINE('',#610,#611);
#610 = CARTESIAN_POINT('',(0.,1.570798545055));
#611 = VECTOR('',#612,1.);
#612 = DIRECTION('',(1.,0.));
#613 = ( GEOMETRIC_REPRESENTATION_CONTEXT(2) 
PARAMETRIC_REPRESENTATION_CONTEXT() REPRESENTATION_CONTEXT('2D SPACE',''
  ) );
#614 = ORIENTED_EDGE('',*,*,#21,.F.);
#615 = ADVANCED_FACE('',(#616),#389,.T.);
#616 = FACE_BOUND('',#617,.T.);
#617 = EDGE_LOOP('',(#618,#640,#727,#728));
#618 = ORIENTED_EDGE('',*,*,#619,.T.);
#619 = EDGE_CURVE('',#332,#620,#622,.T.);
#620 = VERTEX_POINT('',#621);
#621 = CARTESIAN_POINT('',(49.72360679775,21.17082039325,0.5527864045));
#622 = SURFACE_CURVE('',#623,(#627,#634),.PCURVE_S1.);
#623 = ( BOUNDED_CURVE() B_SPLINE_CURVE(2,(#624,#625,#626),
.UNSPECIFIED.,.F.,.F.) B_SPLINE_CURVE_WITH_KNOTS((3,3),(0.,
1.570800763314),.PIECEWISE_BEZIER_KNOTS.) CURVE() 
GEOMETRIC_REPRESENTATION_ITEM() RATIONAL_B_SPLINE_CURVE((1.,
0.850650808352,1.)) REPRESENTATION_ITEM('') );
#624 = CARTESIAN_POINT('',(50.61803398875,21.170822377322,0.));
#625 = CARTESIAN_POINT('',(50.,21.170821006361,1.665334536938E-16));
#626 = CARTESIAN_POINT('',(49.72360679775,21.17082039325,0.5527864045));
#627 = PCURVE('',#389,#628);
#628 = DEFINITIONAL_REPRESENTATION('',(#629),#633);
#629 = LINE('',#630,#631);
#630 = CARTESIAN_POINT('',(0.,-2.218259482335E-06));
#631 = VECTOR('',#632,1.);
#632 = DIRECTION('',(1.,0.));
#633 = ( GEOMETRIC_REPRESENTATION_CONTEXT(2) 
PARAMETRIC_REPRESENTATION_CONTEXT() REPRESENTATION_CONTEXT('2D SPACE',''
  ) );
#634 = PCURVE('',#345,#635);
#635 = DEFINITIONAL_REPRESENTATION('',(#636),#639);
#636 = B_SPLINE_CURVE_WITH_KNOTS('',1,(#637,#638),.UNSPECIFIED.,.F.,.F.,
  (2,2),(0.,1.570800763314),.PIECEWISE_BEZIER_KNOTS.);
#637 = CARTESIAN_POINT('',(0.,28.829181590818));
#638 = CARTESIAN_POINT('',(36.72,28.829181590818));
#639 = ( GEOMETRIC_REPRESENTATION_CONTEXT(2) 
PARAMETRIC_REPRESENTATION_CONTEXT() REPRESENTATION_CONTEXT('2D SPACE',''
  ) );
#640 = ORIENTED_EDGE('',*,*,#641,.T.);
#641 = EDGE_CURVE('',#620,#548,#642,.T.);
#642 = SURFACE_CURVE('',#643,(#655,#662),.PCURVE_S1.);
#643 = ( BOUNDED_CURVE() B_SPLINE_CURVE(10,(#644,#645,#646,#647,#648,
    #649,#650,#651,#652,#653,#654),.UNSPECIFIED.,.F.,.F.) 
B_SPLINE_CURVE_WITH_KNOTS((11,11),(-2.218259482335E-06,1.570798545055),
.PIECEWISE_BEZIER_KNOTS.) CURVE() GEOMETRIC_REPRESENTATION_ITEM() 
RATIONAL_B_SPLINE_CURVE((1.,1.,1.,1.,1.,1.,1.,1.,1.,1.,1.)) 
REPRESENTATION_ITEM('') );
#644 = CARTESIAN_POINT('',(49.72360679775,21.17082039325,0.5527864045));
#645 = CARTESIAN_POINT('',(49.743677687522,21.030324057993,
    0.512644624956));
#646 = CARTESIAN_POINT('',(49.748029978398,20.883150018198,
    0.474102039618));
#647 = CARTESIAN_POINT('',(49.730563846869,20.725969129116,
    0.439071976192));
#648 = CARTESIAN_POINT('',(49.682743146176,20.575649815992,0.41179086587
    ));
#649 = CARTESIAN_POINT('',(49.594833276424,20.405166723575,
    0.398556017987));
#650 = CARTESIAN_POINT('',(49.424350184008,20.317256853824,0.41179086587
    ));
#651 = CARTESIAN_POINT('',(49.274030870884,20.26943615313,0.439071976192
    ));
#652 = CARTESIAN_POINT('',(49.116849981801,20.251970021602,
    0.474102039618));
#653 = CARTESIAN_POINT('',(48.969675942006,20.256322312478,
    0.512644624956));
#654 = CARTESIAN_POINT('',(48.82917960675,20.27639320225,0.552786404499)
  );
#655 = PCURVE('',#389,#656);
#656 = DEFINITIONAL_REPRESENTATION('',(#657),#661);
#657 = LINE('',#658,#659);
#658 = CARTESIAN_POINT('',(1.570800763314,0.));
#659 = VECTOR('',#660,1.);
#660 = DIRECTION('',(0.,1.));
#661 = ( GEOMETRIC_REPRESENTATION_CONTEXT(2) 
PARAMETRIC_REPRESENTATION_CONTEXT() REPRESENTATION_CONTEXT('2D SPACE',''
  ) );
#662 = PCURVE('',#663,#706);
#663 = ( BOUNDED_SURFACE() B_SPLINE_SURFACE(2,5,(
    (#664,#665,#666,#667,#668,#669,#670,#671,#672,#673,#674,#675,#676
      ,#677)
    ,(#678,#679,#680,#681,#682,#683,#684,#685,#686,#687,#688,#689,#690
      ,#691)
    ,(#692,#693,#694,#695,#696,#697,#698,#699,#700,#701,#702,#703,#704
,#705
    )),.UNSPECIFIED.,.F.,.F.,.F.) B_SPLINE_SURFACE_WITH_KNOTS((3,3),(6,4
    ,4,6),(0.,12.247448713916),(-8.457794510488E-02,0.36514837167,
    12.612597085586,13.062323402361),.UNSPECIFIED.) 
GEOMETRIC_REPRESENTATION_ITEM() RATIONAL_B_SPLINE_SURFACE((
    (1.,1.,1.,1.,1.,1.,1.,1.,1.,1.,1.,1.,1.,1.)
    ,(0.774596669241,0.774596669241,0.774596669241,0.774596669241
      ,0.774596669241,0.774596669241,0.774596669241,0.774596669241
      ,0.774596669241,0.774596669241,0.774596669241,0.774596669241
      ,0.774596669241,0.774596669241)
,(1.,1.,1.,1.,1.,1.,1.,1.,1.,1.,1.,1.,1.,1.
))) REPRESENTATION_ITEM('') SURFACE() );
#664 = CARTESIAN_POINT('',(49.289172809,19.8164,-0.3672));
#665 = CARTESIAN_POINT('',(49.252452809,19.85312,-0.29376));
#666 = CARTESIAN_POINT('',(49.215732809,19.88984,-0.22032));
#667 = CARTESIAN_POINT('',(49.179012809,19.92656,-0.14688));
#668 = CARTESIAN_POINT('',(49.142292809,19.96328,-7.344E-02));
#669 = CARTESIAN_POINT('',(48.105572809,21.,2.));
#670 = CARTESIAN_POINT('',(47.105572809,22.,4.));
#671 = CARTESIAN_POINT('',(46.105572809,23.,6.));
#672 = CARTESIAN_POINT('',(45.105572809,24.,8.));
#673 = CARTESIAN_POINT('',(44.068852809,25.03672,10.07344));
#674 = CARTESIAN_POINT('',(44.032132809,25.07344,10.14688));
#675 = CARTESIAN_POINT('',(43.995412809,25.11016,10.22032));
#676 = CARTESIAN_POINT('',(43.958692809,25.14688,10.29376));
#677 = CARTESIAN_POINT('',(43.921972809,25.1836,10.3672));
#678 = CARTESIAN_POINT('',(50.0345288015,19.9654711985,
    -6.905760300003E-02));
#679 = CARTESIAN_POINT('',(49.9978088015,20.0021911985,
    4.382396999972E-03));
#680 = CARTESIAN_POINT('',(49.9610888015,20.0389111985,
    7.782239699997E-02));
#681 = CARTESIAN_POINT('',(49.9243688015,20.0756311985,0.151262397));
#682 = CARTESIAN_POINT('',(49.8876488015,20.1123511985,0.224702397));
#683 = CARTESIAN_POINT('',(48.8509288015,21.1490711985,2.298142397));
#684 = CARTESIAN_POINT('',(47.8509288015,22.1490711985,4.298142397));
#685 = CARTESIAN_POINT('',(46.8509288015,23.1490711985,6.298142397));
#686 = CARTESIAN_POINT('',(45.8509288015,24.1490711985,8.298142397));
#687 = CARTESIAN_POINT('',(44.8142088015,25.1857911985,10.371582397));
#688 = CARTESIAN_POINT('',(44.7774888015,25.2225111985,10.445022397));
#689 = CARTESIAN_POINT('',(44.7407688015,25.2592311985,10.518462397));
#690 = CARTESIAN_POINT('',(44.7040488015,25.2959511985,10.591902397));
#691 = CARTESIAN_POINT('',(44.6673288015,25.3326711985,10.665342397));
#692 = CARTESIAN_POINT('',(50.1836,20.710827191,-0.3672));
#693 = CARTESIAN_POINT('',(50.14688,20.747547191,-0.29376));
#694 = CARTESIAN_POINT('',(50.11016,20.784267191,-0.22032));
#695 = CARTESIAN_POINT('',(50.07344,20.820987191,-0.14688));
#696 = CARTESIAN_POINT('',(50.03672,20.857707191,-7.344E-02));
#697 = CARTESIAN_POINT('',(49.,21.894427191,2.));
#698 = CARTESIAN_POINT('',(48.,22.894427191,4.));
#699 = CARTESIAN_POINT('',(47.,23.894427191,6.));
#700 = CARTESIAN_POINT('',(46.,24.894427191,8.));
#701 = CARTESIAN_POINT('',(44.96328,25.931147191,10.07344));
#702 = CARTESIAN_POINT('',(44.92656,25.967867191,10.14688));
#703 = CARTESIAN_POINT('',(44.88984,26.004587191,10.22032));
#704 = CARTESIAN_POINT('',(44.85312,26.041307191,10.29376));
#705 = CARTESIAN_POINT('',(44.8164,26.078027191,10.3672));
#706 = DEFINITIONAL_REPRESENTATION('',(#707),#726);
#707 = B_SPLINE_CURVE_WITH_KNOTS('',9,(#708,#709,#710,#711,#712,#713,
    #714,#715,#716,#717,#718,#719,#720,#721,#722,#723,#724,#725),
  .UNSPECIFIED.,.F.,.F.,(10,8,10),(-2.218259482335E-06,0.785398163398,
    1.570798545055),.UNSPECIFIED.);
#708 = CARTESIAN_POINT('',(12.247448713914,1.042170685555));
#709 = CARTESIAN_POINT('',(11.65610392829,0.987544618404));
#710 = CARTESIAN_POINT('',(11.050032753599,0.93450984174));
#711 = CARTESIAN_POINT('',(10.419617667147,0.883416035351));
#712 = CARTESIAN_POINT('',(9.766248732929,0.836089210338));
#713 = CARTESIAN_POINT('',(9.079428835916,0.793689989135));
#714 = CARTESIAN_POINT('',(8.362939922137,0.759118064955));
#715 = CARTESIAN_POINT('',(7.623833778354,0.735335849209));
#716 = CARTESIAN_POINT('',(6.873783720326,0.723403477125));
#717 = CARTESIAN_POINT('',(5.373664993588,0.723403477125));
#718 = CARTESIAN_POINT('',(4.623614935543,0.73533584921));
#719 = CARTESIAN_POINT('',(3.884508791849,0.759118064952));
#720 = CARTESIAN_POINT('',(3.168019877849,0.793689989145));
#721 = CARTESIAN_POINT('',(2.481199981171,0.836089210325));
#722 = CARTESIAN_POINT('',(1.827831046626,0.883416035362));
#723 = CARTESIAN_POINT('',(1.197415960377,0.934509841735));
#724 = CARTESIAN_POINT('',(0.591344785621,0.987544618405));
#725 = CARTESIAN_POINT('',(-1.038701775572E-15,1.042170685555));
#726 = ( GEOMETRIC_REPRESENTATION_CONTEXT(2) 
PARAMETRIC_REPRESENTATION_CONTEXT() REPRESENTATION_CONTEXT('2D SPACE',''
  ) );
#727 = ORIENTED_EDGE('',*,*,#547,.F.);
#728 = ORIENTED_EDGE('',*,*,#359,.F.);
#729 = ADVANCED_FACE('',(#730),#88,.F.);
#730 = FACE_BOUND('',#731,.F.);
#731 = EDGE_LOOP('',(#732,#754,#841,#842));
#732 = ORIENTED_EDGE('',*,*,#733,.T.);
#733 = EDGE_CURVE('',#57,#734,#736,.T.);
#734 = VERTEX_POINT('',#735);
#735 = CARTESIAN_POINT('',(20.27639320225,21.17082039325,0.5527864045));
#736 = SURFACE_CURVE('',#737,(#741,#748),.PCURVE_S1.);
#737 = ( BOUNDED_CURVE() B_SPLINE_CURVE(2,(#738,#739,#740),
.UNSPECIFIED.,.F.,.F.) B_SPLINE_CURVE_WITH_KNOTS((3,3),(0.,
1.570800763314),.PIECEWISE_BEZIER_KNOTS.) CURVE() 
GEOMETRIC_REPRESENTATION_ITEM() RATIONAL_B_SPLINE_CURVE((1.,
0.850650808352,1.)) REPRESENTATION_ITEM('') );
#738 = CARTESIAN_POINT('',(19.38196601125,21.170822377322,0.));
#739 = CARTESIAN_POINT('',(20.,21.170821006361,-5.551115123126E-17));
#740 = CARTESIAN_POINT('',(20.27639320225,21.17082039325,0.5527864045));
#741 = PCURVE('',#88,#742);
#742 = DEFINITIONAL_REPRESENTATION('',(#743),#747);
#743 = LINE('',#744,#745);
#744 = CARTESIAN_POINT('',(0.,-2.218259478952E-06));
#745 = VECTOR('',#746,1.);
#746 = DIRECTION('',(1.,0.));
#747 = ( GEOMETRIC_REPRESENTATION_CONTEXT(2) 
PARAMETRIC_REPRESENTATION_CONTEXT() REPRESENTATION_CONTEXT('2D SPACE',''
  ) );
#748 = PCURVE('',#143,#749);
#749 = DEFINITIONAL_REPRESENTATION('',(#750),#753);
#750 = B_SPLINE_CURVE_WITH_KNOTS('',1,(#751,#752),.UNSPECIFIED.,.F.,.F.,
  (2,2),(0.,1.570800763314),.PIECEWISE_BEZIER_KNOTS.);
#751 = CARTESIAN_POINT('',(0.,1.170818409182));
#752 = CARTESIAN_POINT('',(36.72,1.170818409182));
#753 = ( GEOMETRIC_REPRESENTATION_CONTEXT(2) 
PARAMETRIC_REPRESENTATION_CONTEXT() REPRESENTATION_CONTEXT('2D SPACE',''
  ) );
#754 = ORIENTED_EDGE('',*,*,#755,.T.);
#755 = EDGE_CURVE('',#734,#570,#756,.T.);
#756 = SURFACE_CURVE('',#757,(#769,#776),.PCURVE_S1.);
#757 = ( BOUNDED_CURVE() B_SPLINE_CURVE(10,(#758,#759,#760,#761,#762,
    #763,#764,#765,#766,#767,#768),.UNSPECIFIED.,.F.,.F.) 
B_SPLINE_CURVE_WITH_KNOTS((11,11),(-2.218259478952E-06,1.570798545055),
.PIECEWISE_BEZIER_KNOTS.) CURVE() GEOMETRIC_REPRESENTATION_ITEM() 
RATIONAL_B_SPLINE_CURVE((1.,1.,1.,1.,1.,1.,1.,1.,1.,1.,1.)) 
REPRESENTATION_ITEM('') );
#758 = CARTESIAN_POINT('',(20.27639320225,21.17082039325,0.5527864045));
#759 = CARTESIAN_POINT('',(20.256322312478,21.030324057993,
    0.512644624956));
#760 = CARTESIAN_POINT('',(20.251970021602,20.883150018199,
    0.474102039618));
#761 = CARTESIAN_POINT('',(20.26943615313,20.725969129115,0.439071976192
    ));
#762 = CARTESIAN_POINT('',(20.317256853825,20.575649815993,0.41179086587
    ));
#763 = CARTESIAN_POINT('',(20.405166723574,20.405166723574,
    0.398556017986));
#764 = CARTESIAN_POINT('',(20.575649815994,20.317256853825,
    0.411790865871));
#765 = CARTESIAN_POINT('',(20.725969129115,20.26943615313,0.439071976192
    ));
#766 = CARTESIAN_POINT('',(20.883150018199,20.251970021602,
    0.474102039618));
#767 = CARTESIAN_POINT('',(21.030324057994,20.256322312478,
    0.512644624956));
#768 = CARTESIAN_POINT('',(21.170820393249,20.27639320225,0.552786404499
    ));
#769 = PCURVE('',#88,#770);
#770 = DEFINITIONAL_REPRESENTATION('',(#771),#775);
#771 = LINE('',#772,#773);
#772 = CARTESIAN_POINT('',(1.570800763314,0.));
#773 = VECTOR('',#774,1.);
#774 = DIRECTION('',(0.,1.));
#775 = ( GEOMETRIC_REPRESENTATION_CONTEXT(2) 
PARAMETRIC_REPRESENTATION_CONTEXT() REPRESENTATION_CONTEXT('2D SPACE',''
  ) );
#776 = PCURVE('',#777,#820);
#777 = ( BOUNDED_SURFACE() B_SPLINE_SURFACE(2,5,(
    (#778,#779,#780,#781,#782,#783,#784,#785,#786,#787,#788,#789,#790
      ,#791)
    ,(#792,#793,#794,#795,#796,#797,#798,#799,#800,#801,#802,#803,#804
      ,#805)
    ,(#806,#807,#808,#809,#810,#811,#812,#813,#814,#815,#816,#817,#818
,#819
    )),.UNSPECIFIED.,.F.,.F.,.F.) B_SPLINE_SURFACE_WITH_KNOTS((3,3),(6,4
    ,4,6),(0.,12.247448713916),(-8.457794510488E-02,0.36514837167,
    12.612597085586,13.062323402361),.UNSPECIFIED.) 
GEOMETRIC_REPRESENTATION_ITEM() RATIONAL_B_SPLINE_SURFACE((
    (1.,1.,1.,1.,1.,1.,1.,1.,1.,1.,1.,1.,1.,1.)
    ,(0.774596669241,0.774596669241,0.774596669241,0.774596669241
      ,0.774596669241,0.774596669241,0.774596669241,0.774596669241
      ,0.774596669241,0.774596669241,0.774596669241,0.774596669241
      ,0.774596669241,0.774596669241)
,(1.,1.,1.,1.,1.,1.,1.,1.,1.,1.,1.,1.,1.,1.
))) REPRESENTATION_ITEM('') SURFACE() );
#778 = CARTESIAN_POINT('',(19.8164,20.710827191,-0.3672));
#779 = CARTESIAN_POINT('',(19.85312,20.747547191,-0.29376));
#780 = CARTESIAN_POINT('',(19.88984,20.784267191,-0.22032));
#781 = CARTESIAN_POINT('',(19.92656,20.820987191,-0.14688));
#782 = CARTESIAN_POINT('',(19.96328,20.857707191,-7.344E-02));
#783 = CARTESIAN_POINT('',(21.,21.894427191,2.));
#784 = CARTESIAN_POINT('',(22.,22.894427191,4.));
#785 = CARTESIAN_POINT('',(23.,23.894427191,6.));
#786 = CARTESIAN_POINT('',(24.,24.894427191,8.));
#787 = CARTESIAN_POINT('',(25.03672,25.931147191,10.07344));
#788 = CARTESIAN_POINT('',(25.07344,25.967867191,10.14688));
#789 = CARTESIAN_POINT('',(25.11016,26.004587191,10.22032));
#790 = CARTESIAN_POINT('',(25.14688,26.041307191,10.29376));
#791 = CARTESIAN_POINT('',(25.1836,26.078027191,10.3672));
#792 = CARTESIAN_POINT('',(19.9654711985,19.9654711985,
    -6.905760300003E-02));
#793 = CARTESIAN_POINT('',(20.0021911985,20.0021911985,
    4.382396999973E-03));
#794 = CARTESIAN_POINT('',(20.0389111985,20.0389111985,
    7.782239699997E-02));
#795 = CARTESIAN_POINT('',(20.0756311985,20.0756311985,0.151262397));
#796 = CARTESIAN_POINT('',(20.1123511985,20.1123511985,0.224702397));
#797 = CARTESIAN_POINT('',(21.1490711985,21.1490711985,2.298142397));
#798 = CARTESIAN_POINT('',(22.1490711985,22.1490711985,4.298142397));
#799 = CARTESIAN_POINT('',(23.1490711985,23.1490711985,6.298142397));
#800 = CARTESIAN_POINT('',(24.1490711985,24.1490711985,8.298142397));
#801 = CARTESIAN_POINT('',(25.1857911985,25.1857911985,10.371582397));
#802 = CARTESIAN_POINT('',(25.2225111985,25.2225111985,10.445022397));
#803 = CARTESIAN_POINT('',(25.2592311985,25.2592311985,10.518462397));
#804 = CARTESIAN_POINT('',(25.2959511985,25.2959511985,10.591902397));
#805 = CARTESIAN_POINT('',(25.3326711985,25.3326711985,10.665342397));
#806 = CARTESIAN_POINT('',(20.710827191,19.8164,-0.3672));
#807 = CARTESIAN_POINT('',(20.747547191,19.85312,-0.29376));
#808 = CARTESIAN_POINT('',(20.784267191,19.88984,-0.22032));
#809 = CARTESIAN_POINT('',(20.820987191,19.92656,-0.14688));
#810 = CARTESIAN_POINT('',(20.857707191,19.96328,-7.344E-02));
#811 = CARTESIAN_POINT('',(21.894427191,21.,2.));
#812 = CARTESIAN_POINT('',(22.894427191,22.,4.));
#813 = CARTESIAN_POINT('',(23.894427191,23.,6.));
#814 = CARTESIAN_POINT('',(24.894427191,24.,8.));
#815 = CARTESIAN_POINT('',(25.931147191,25.03672,10.07344));
#816 = CARTESIAN_POINT('',(25.967867191,25.07344,10.14688));
#817 = CARTESIAN_POINT('',(26.004587191,25.11016,10.22032));
#818 = CARTESIAN_POINT('',(26.041307191,25.14688,10.29376));
#819 = CARTESIAN_POINT('',(26.078027191,25.1836,10.3672));
#820 = DEFINITIONAL_REPRESENTATION('',(#821),#840);
#821 = B_SPLINE_CURVE_WITH_KNOTS('',9,(#822,#823,#824,#825,#826,#827,
    #828,#829,#830,#831,#832,#833,#834,#835,#836,#837,#838,#839),
  .UNSPECIFIED.,.F.,.F.,(10,8,10),(-2.218259478952E-06,0.785398163398,
    1.570798545055),.UNSPECIFIED.);
#822 = CARTESIAN_POINT('',(1.469935284604E-12,1.042170685555));
#823 = CARTESIAN_POINT('',(0.591344785626,0.987544618404));
#824 = CARTESIAN_POINT('',(1.197415960316,0.93450984174));
#825 = CARTESIAN_POINT('',(1.827831046769,0.883416035351));
#826 = CARTESIAN_POINT('',(2.481199980988,0.836089210338));
#827 = CARTESIAN_POINT('',(3.168019877999,0.793689989135));
#828 = CARTESIAN_POINT('',(3.88450879178,0.759118064955));
#829 = CARTESIAN_POINT('',(4.623614935561,0.735335849209));
#830 = CARTESIAN_POINT('',(5.373664993591,0.723403477125));
#831 = CARTESIAN_POINT('',(6.873783720327,0.723403477125));
#832 = CARTESIAN_POINT('',(7.623833778373,0.73533584921));
#833 = CARTESIAN_POINT('',(8.362939922069,0.759118064952));
#834 = CARTESIAN_POINT('',(9.079428836062,0.793689989144));
#835 = CARTESIAN_POINT('',(9.766248732751,0.836089210325));
#836 = CARTESIAN_POINT('',(10.419617667285,0.883416035362));
#837 = CARTESIAN_POINT('',(11.050032753542,0.934509841735));
#838 = CARTESIAN_POINT('',(11.656103928295,0.987544618405));
#839 = CARTESIAN_POINT('',(12.247448713916,1.042170685555));
#840 = ( GEOMETRIC_REPRESENTATION_CONTEXT(2) 
PARAMETRIC_REPRESENTATION_CONTEXT() REPRESENTATION_CONTEXT('2D SPACE',''
  ) );
#841 = ORIENTED_EDGE('',*,*,#595,.F.);
#842 = ORIENTED_EDGE('',*,*,#56,.F.);
#843 = ADVANCED_FACE('',(#844),#345,.T.);
#844 = FACE_BOUND('',#845,.T.);
#845 = EDGE_LOOP('',(#846,#868,#892,#893));
#846 = ORIENTED_EDGE('',*,*,#847,.T.);
#847 = EDGE_CURVE('',#259,#848,#850,.T.);
#848 = VERTEX_POINT('',#849);
#849 = CARTESIAN_POINT('',(49.72360679775,48.829179606751,0.552786404499
    ));
#850 = SURFACE_CURVE('',#851,(#855,#861),.PCURVE_S1.);
#851 = ( BOUNDED_CURVE() B_SPLINE_CURVE(2,(#852,#853,#854),
.UNSPECIFIED.,.F.,.F.) B_SPLINE_CURVE_WITH_KNOTS((3,3),(0.,
1.570800763314),.PIECEWISE_BEZIER_KNOTS.) CURVE() 
GEOMETRIC_REPRESENTATION_ITEM() RATIONAL_B_SPLINE_CURVE((1.,
0.850650808352,1.)) REPRESENTATION_ITEM('') );
#852 = CARTESIAN_POINT('',(50.618033988748,48.829177622679,0.));
#853 = CARTESIAN_POINT('',(50.,48.829178993639,2.775557561563E-16));
#854 = CARTESIAN_POINT('',(49.72360679775,48.829179606751,0.552786404499
    ));
#855 = PCURVE('',#345,#856);
#856 = DEFINITIONAL_REPRESENTATION('',(#857),#860);
#857 = B_SPLINE_CURVE_WITH_KNOTS('',1,(#858,#859),.UNSPECIFIED.,.F.,.F.,
  (2,2),(0.,1.570800763314),.PIECEWISE_BEZIER_KNOTS.);
#858 = CARTESIAN_POINT('',(0.,1.170818409182));
#859 = CARTESIAN_POINT('',(36.72,1.170818409182));
#860 = ( GEOMETRIC_REPRESENTATION_CONTEXT(2) 
PARAMETRIC_REPRESENTATION_CONTEXT() REPRESENTATION_CONTEXT('2D SPACE',''
  ) );
#861 = PCURVE('',#290,#862);
#862 = DEFINITIONAL_REPRESENTATION('',(#863),#867);
#863 = LINE('',#864,#865);
#864 = CARTESIAN_POINT('',(0.,1.570798545055));
#865 = VECTOR('',#866,1.);
#866 = DIRECTION('',(1.,0.));
#867 = ( GEOMETRIC_REPRESENTATION_CONTEXT(2) 
PARAMETRIC_REPRESENTATION_CONTEXT() REPRESENTATION_CONTEXT('2D SPACE',''
  ) );
#868 = ORIENTED_EDGE('',*,*,#869,.T.);
#869 = EDGE_CURVE('',#848,#620,#870,.T.);
#870 = SURFACE_CURVE('',#871,(#874,#881),.PCURVE_S1.);
#871 = B_SPLINE_CURVE_WITH_KNOTS('',1,(#872,#873),.UNSPECIFIED.,.F.,.F.,
  (2,2),(-3.36,33.36),.PIECEWISE_BEZIER_KNOTS.);
#872 = CARTESIAN_POINT('',(49.72360679775,53.36,0.5527864045));
#873 = CARTESIAN_POINT('',(49.72360679775,16.64,0.5527864045));
#874 = PCURVE('',#345,#875);
#875 = DEFINITIONAL_REPRESENTATION('',(#876),#880);
#876 = LINE('',#877,#878);
#877 = CARTESIAN_POINT('',(36.72,0.));
#878 = VECTOR('',#879,1.);
#879 = DIRECTION('',(0.,1.));
#880 = ( GEOMETRIC_REPRESENTATION_CONTEXT(2) 
PARAMETRIC_REPRESENTATION_CONTEXT() REPRESENTATION_CONTEXT('2D SPACE',''
  ) );
#881 = PCURVE('',#882,#887);
#882 = B_SPLINE_SURFACE_WITH_KNOTS('',1,1,(
    (#883,#884)
    ,(#885,#886
  )),.UNSPECIFIED.,.F.,.F.,.F.,(2,2),(2,2),(0.,30.),(0.,1.),
  .PIECEWISE_BEZIER_KNOTS.);
#883 = CARTESIAN_POINT('',(50.,50.,0.));
#884 = CARTESIAN_POINT('',(45.,45.,10.));
#885 = CARTESIAN_POINT('',(50.,20.,0.));
#886 = CARTESIAN_POINT('',(45.,25.,10.));
#887 = DEFINITIONAL_REPRESENTATION('',(#888),#891);
#888 = B_SPLINE_CURVE_WITH_KNOTS('',1,(#889,#890),.UNSPECIFIED.,.F.,.F.,
  (2,2),(-3.36,33.36),.PIECEWISE_BEZIER_KNOTS.);
#889 = CARTESIAN_POINT('',(-3.704655984299,5.527864045E-02));
#890 = CARTESIAN_POINT('',(33.704655984299,5.527864045E-02));
#891 = ( GEOMETRIC_REPRESENTATION_CONTEXT(2) 
PARAMETRIC_REPRESENTATION_CONTEXT() REPRESENTATION_CONTEXT('2D SPACE',''
  ) );
#892 = ORIENTED_EDGE('',*,*,#619,.F.);
#893 = ORIENTED_EDGE('',*,*,#331,.F.);
#894 = ADVANCED_FACE('',(#895),#143,.T.);
#895 = FACE_BOUND('',#896,.T.);
#896 = EDGE_LOOP('',(#897,#898,#924,#944));
#897 = ORIENTED_EDGE('',*,*,#733,.T.);
#898 = ORIENTED_EDGE('',*,*,#899,.T.);
#899 = EDGE_CURVE('',#734,#900,#902,.T.);
#900 = VERTEX_POINT('',#901);
#901 = CARTESIAN_POINT('',(20.27639320225,48.82917960675,0.552786404499)
  );
#902 = SURFACE_CURVE('',#903,(#906,#913),.PCURVE_S1.);
#903 = B_SPLINE_CURVE_WITH_KNOTS('',1,(#904,#905),.UNSPECIFIED.,.F.,.F.,
  (2,2),(-3.36,33.36),.PIECEWISE_BEZIER_KNOTS.);
#904 = CARTESIAN_POINT('',(20.27639320225,16.64,0.5527864045));
#905 = CARTESIAN_POINT('',(20.27639320225,53.36,0.5527864045));
#906 = PCURVE('',#143,#907);
#907 = DEFINITIONAL_REPRESENTATION('',(#908),#912);
#908 = LINE('',#909,#910);
#909 = CARTESIAN_POINT('',(36.72,0.));
#910 = VECTOR('',#911,1.);
#911 = DIRECTION('',(0.,1.));
#912 = ( GEOMETRIC_REPRESENTATION_CONTEXT(2) 
PARAMETRIC_REPRESENTATION_CONTEXT() REPRESENTATION_CONTEXT('2D SPACE',''
  ) );
#913 = PCURVE('',#914,#919);
#914 = B_SPLINE_SURFACE_WITH_KNOTS('',1,1,(
    (#915,#916)
    ,(#917,#918
  )),.UNSPECIFIED.,.F.,.F.,.F.,(2,2),(2,2),(0.,30.),(0.,1.),
  .PIECEWISE_BEZIER_KNOTS.);
#915 = CARTESIAN_POINT('',(20.,20.,0.));
#916 = CARTESIAN_POINT('',(25.,25.,10.));
#917 = CARTESIAN_POINT('',(20.,50.,0.));
#918 = CARTESIAN_POINT('',(25.,45.,10.));
#919 = DEFINITIONAL_REPRESENTATION('',(#920),#923);
#920 = B_SPLINE_CURVE_WITH_KNOTS('',1,(#921,#922),.UNSPECIFIED.,.F.,.F.,
  (2,2),(-3.36,33.36),.PIECEWISE_BEZIER_KNOTS.);
#921 = CARTESIAN_POINT('',(-3.704655984299,5.527864045E-02));
#922 = CARTESIAN_POINT('',(33.704655984299,5.527864045E-02));
#923 = ( GEOMETRIC_REPRESENTATION_CONTEXT(2) 
PARAMETRIC_REPRESENTATION_CONTEXT() REPRESENTATION_CONTEXT('2D SPACE',''
  ) );
#924 = ORIENTED_EDGE('',*,*,#925,.F.);
#925 = EDGE_CURVE('',#130,#900,#926,.T.);
#926 = SURFACE_CURVE('',#927,(#931,#937),.PCURVE_S1.);
#927 = ( BOUNDED_CURVE() B_SPLINE_CURVE(2,(#928,#929,#930),
.UNSPECIFIED.,.F.,.F.) B_SPLINE_CURVE_WITH_KNOTS((3,3),(0.,
1.570800763314),.PIECEWISE_BEZIER_KNOTS.) CURVE() 
GEOMETRIC_REPRESENTATION_ITEM() RATIONAL_B_SPLINE_CURVE((1.,
0.850650808352,1.)) REPRESENTATION_ITEM('') );
#928 = CARTESIAN_POINT('',(19.381966011252,48.829177622679,0.));
#929 = CARTESIAN_POINT('',(20.,48.829178993639,-4.440892098501E-16));
#930 = CARTESIAN_POINT('',(20.27639320225,48.82917960675,0.552786404499)
  );
#931 = PCURVE('',#143,#932);
#932 = DEFINITIONAL_REPRESENTATION('',(#933),#936);
#933 = B_SPLINE_CURVE_WITH_KNOTS('',1,(#934,#935),.UNSPECIFIED.,.F.,.F.,
  (2,2),(0.,1.570800763314),.PIECEWISE_BEZIER_KNOTS.);
#934 = CARTESIAN_POINT('',(0.,28.829181590818));
#935 = CARTESIAN_POINT('',(36.72,28.829181590818));
#936 = ( GEOMETRIC_REPRESENTATION_CONTEXT(2) 
PARAMETRIC_REPRESENTATION_CONTEXT() REPRESENTATION_CONTEXT('2D SPACE',''
  ) );
#937 = PCURVE('',#189,#938);
#938 = DEFINITIONAL_REPRESENTATION('',(#939),#943);
#939 = LINE('',#940,#941);
#940 = CARTESIAN_POINT('',(0.,1.570798545055));
#941 = VECTOR('',#942,1.);
#942 = DIRECTION('',(1.,0.));
#943 = ( GEOMETRIC_REPRESENTATION_CONTEXT(2) 
PARAMETRIC_REPRESENTATION_CONTEXT() REPRESENTATION_CONTEXT('2D SPACE',''
  ) );
#944 = ORIENTED_EDGE('',*,*,#129,.F.);
#945 = ADVANCED_FACE('',(#946),#290,.T.);
#946 = FACE_BOUND('',#947,.T.);
#947 = EDGE_LOOP('',(#948,#970,#1057,#1058));
#948 = ORIENTED_EDGE('',*,*,#949,.T.);
#949 = EDGE_CURVE('',#231,#950,#952,.T.);
#950 = VERTEX_POINT('',#951);
#951 = CARTESIAN_POINT('',(48.82917960675,49.72360679775,0.5527864045));
#952 = SURFACE_CURVE('',#953,(#957,#964),.PCURVE_S1.);
#953 = ( BOUNDED_CURVE() B_SPLINE_CURVE(2,(#954,#955,#956),
.UNSPECIFIED.,.F.,.F.) B_SPLINE_CURVE_WITH_KNOTS((3,3),(0.,
1.570800763314),.PIECEWISE_BEZIER_KNOTS.) CURVE() 
GEOMETRIC_REPRESENTATION_ITEM() RATIONAL_B_SPLINE_CURVE((1.,
0.850650808352,1.)) REPRESENTATION_ITEM('') );
#954 = CARTESIAN_POINT('',(48.829177622678,50.61803398875,0.));
#955 = CARTESIAN_POINT('',(48.829178993639,50.,4.440892098501E-16));
#956 = CARTESIAN_POINT('',(48.82917960675,49.72360679775,0.5527864045));
#957 = PCURVE('',#290,#958);
#958 = DEFINITIONAL_REPRESENTATION('',(#959),#963);
#959 = LINE('',#960,#961);
#960 = CARTESIAN_POINT('',(0.,-2.218259475787E-06));
#961 = VECTOR('',#962,1.);
#962 = DIRECTION('',(1.,0.));
#963 = ( GEOMETRIC_REPRESENTATION_CONTEXT(2) 
PARAMETRIC_REPRESENTATION_CONTEXT() REPRESENTATION_CONTEXT('2D SPACE',''
  ) );
#964 = PCURVE('',#244,#965);
#965 = DEFINITIONAL_REPRESENTATION('',(#966),#969);
#966 = B_SPLINE_CURVE_WITH_KNOTS('',1,(#967,#968),.UNSPECIFIED.,.F.,.F.,
  (2,2),(0.,1.570800763314),.PIECEWISE_BEZIER_KNOTS.);
#967 = CARTESIAN_POINT('',(0.,28.829181590818));
#968 = CARTESIAN_POINT('',(36.72,28.829181590818));
#969 = ( GEOMETRIC_REPRESENTATION_CONTEXT(2) 
PARAMETRIC_REPRESENTATION_CONTEXT() REPRESENTATION_CONTEXT('2D SPACE',''
  ) );
#970 = ORIENTED_EDGE('',*,*,#971,.T.);
#971 = EDGE_CURVE('',#950,#848,#972,.T.);
#972 = SURFACE_CURVE('',#973,(#985,#992),.PCURVE_S1.);
#973 = ( BOUNDED_CURVE() B_SPLINE_CURVE(10,(#974,#975,#976,#977,#978,
    #979,#980,#981,#982,#983,#984),.UNSPECIFIED.,.F.,.F.) 
B_SPLINE_CURVE_WITH_KNOTS((11,11),(-2.218259475787E-06,1.570798545055),
.PIECEWISE_BEZIER_KNOTS.) CURVE() GEOMETRIC_REPRESENTATION_ITEM() 
RATIONAL_B_SPLINE_CURVE((1.,1.,1.,1.,1.,1.,1.,1.,1.,1.,1.)) 
REPRESENTATION_ITEM('') );
#974 = CARTESIAN_POINT('',(48.82917960675,49.72360679775,0.5527864045));
#975 = CARTESIAN_POINT('',(48.969675942007,49.743677687522,
    0.512644624956));
#976 = CARTESIAN_POINT('',(49.116849981801,49.748029978398,
    0.474102039618));
#977 = CARTESIAN_POINT('',(49.274030870885,49.73056384687,0.439071976192
    ));
#978 = CARTESIAN_POINT('',(49.424350184007,49.682743146175,0.41179086587
    ));
#979 = CARTESIAN_POINT('',(49.594833276426,49.594833276426,
    0.398556017986));
#980 = CARTESIAN_POINT('',(49.682743146175,49.424350184007,0.41179086587
    ));
#981 = CARTESIAN_POINT('',(49.73056384687,49.274030870885,0.439071976192
    ));
#982 = CARTESIAN_POINT('',(49.748029978398,49.116849981801,
    0.474102039618));
#983 = CARTESIAN_POINT('',(49.743677687522,48.969675942006,
    0.512644624956));
#984 = CARTESIAN_POINT('',(49.72360679775,48.829179606751,0.552786404499
    ));
#985 = PCURVE('',#290,#986);
#986 = DEFINITIONAL_REPRESENTATION('',(#987),#991);
#987 = LINE('',#988,#989);
#988 = CARTESIAN_POINT('',(1.570800763314,0.));
#989 = VECTOR('',#990,1.);
#990 = DIRECTION('',(0.,1.));
#991 = ( GEOMETRIC_REPRESENTATION_CONTEXT(2) 
PARAMETRIC_REPRESENTATION_CONTEXT() REPRESENTATION_CONTEXT('2D SPACE',''
  ) );
#992 = PCURVE('',#993,#1036);
#993 = ( BOUNDED_SURFACE() B_SPLINE_SURFACE(2,5,(
    (#994,#995,#996,#997,#998,#999,#1000,#1001,#1002,#1003,#1004,#1005
      ,#1006,#1007)
    ,(#1008,#1009,#1010,#1011,#1012,#1013,#1014,#1015,#1016,#1017,#1018
      ,#1019,#1020,#1021)
    ,(#1022,#1023,#1024,#1025,#1026,#1027,#1028,#1029,#1030,#1031,#1032
      ,#1033,#1034,#1035
)),.UNSPECIFIED.,.F.,.F.,.F.) B_SPLINE_SURFACE_WITH_KNOTS((3,3),(6,4,4,6
    ),(0.,12.247448713916),(-8.457794510488E-02,0.36514837167,
    12.612597085586,13.062323402361),.UNSPECIFIED.) 
GEOMETRIC_REPRESENTATION_ITEM() RATIONAL_B_SPLINE_SURFACE((
    (1.,1.,1.,1.,1.,1.,1.,1.,1.,1.,1.,1.,1.,1.)
    ,(0.774596669241,0.774596669241,0.774596669241,0.774596669241
      ,0.774596669241,0.774596669241,0.774596669241,0.774596669241
      ,0.774596669241,0.774596669241,0.774596669241,0.774596669241
      ,0.774596669241,0.774596669241)
,(1.,1.,1.,1.,1.,1.,1.,1.,1.,1.,1.,1.,1.,1.
))) REPRESENTATION_ITEM('') SURFACE() );
#994 = CARTESIAN_POINT('',(50.1836,49.289172809,-0.3672));
#995 = CARTESIAN_POINT('',(50.14688,49.252452809,-0.29376));
#996 = CARTESIAN_POINT('',(50.11016,49.215732809,-0.22032));
#997 = CARTESIAN_POINT('',(50.07344,49.179012809,-0.14688));
#998 = CARTESIAN_POINT('',(50.03672,49.142292809,-7.344E-02));
#999 = CARTESIAN_POINT('',(49.,48.105572809,2.));
#1000 = CARTESIAN_POINT('',(48.,47.105572809,4.));
#1001 = CARTESIAN_POINT('',(47.,46.105572809,6.));
#1002 = CARTESIAN_POINT('',(46.,45.105572809,8.));
#1003 = CARTESIAN_POINT('',(44.96328,44.068852809,10.07344));
#1004 = CARTESIAN_POINT('',(44.92656,44.032132809,10.14688));
#1005 = CARTESIAN_POINT('',(44.88984,43.995412809,10.22032));
#1006 = CARTESIAN_POINT('',(44.85312,43.958692809,10.29376));
#1007 = CARTESIAN_POINT('',(44.8164,43.921972809,10.3672));
#1008 = CARTESIAN_POINT('',(50.0345288015,50.0345288015,
    -6.905760300003E-02));
#1009 = CARTESIAN_POINT('',(49.9978088015,49.9978088015,
    4.382396999972E-03));
#1010 = CARTESIAN_POINT('',(49.9610888015,49.9610888015,
    7.782239699997E-02));
#1011 = CARTESIAN_POINT('',(49.9243688015,49.9243688015,0.151262397));
#1012 = CARTESIAN_POINT('',(49.8876488015,49.8876488015,0.224702397));
#1013 = CARTESIAN_POINT('',(48.8509288015,48.8509288015,2.298142397));
#1014 = CARTESIAN_POINT('',(47.8509288015,47.8509288015,4.298142397));
#1015 = CARTESIAN_POINT('',(46.8509288015,46.8509288015,6.298142397));
#1016 = CARTESIAN_POINT('',(45.8509288015,45.8509288015,8.298142397));
#1017 = CARTESIAN_POINT('',(44.8142088015,44.8142088015,10.371582397));
#1018 = CARTESIAN_POINT('',(44.7774888015,44.7774888015,10.445022397));
#1019 = CARTESIAN_POINT('',(44.7407688015,44.7407688015,10.518462397));
#1020 = CARTESIAN_POINT('',(44.7040488015,44.7040488015,10.591902397));
#1021 = CARTESIAN_POINT('',(44.6673288015,44.6673288015,10.665342397));
#1022 = CARTESIAN_POINT('',(49.289172809,50.1836,-0.3672));
#1023 = CARTESIAN_POINT('',(49.252452809,50.14688,-0.29376));
#1024 = CARTESIAN_POINT('',(49.215732809,50.11016,-0.22032));
#1025 = CARTESIAN_POINT('',(49.179012809,50.07344,-0.14688));
#1026 = CARTESIAN_POINT('',(49.142292809,50.03672,-7.344E-02));
#1027 = CARTESIAN_POINT('',(48.105572809,49.,2.));
#1028 = CARTESIAN_POINT('',(47.105572809,48.,4.));
#1029 = CARTESIAN_POINT('',(46.105572809,47.,6.));
#1030 = CARTESIAN_POINT('',(45.105572809,46.,8.));
#1031 = CARTESIAN_POINT('',(44.068852809,44.96328,10.07344));
#1032 = CARTESIAN_POINT('',(44.032132809,44.92656,10.14688));
#1033 = CARTESIAN_POINT('',(43.995412809,44.88984,10.22032));
#1034 = CARTESIAN_POINT('',(43.958692809,44.85312,10.29376));
#1035 = CARTESIAN_POINT('',(43.921972809,44.8164,10.3672));
#1036 = DEFINITIONAL_REPRESENTATION('',(#1037),#1056);
#1037 = B_SPLINE_CURVE_WITH_KNOTS('',9,(#1038,#1039,#1040,#1041,#1042,
    #1043,#1044,#1045,#1046,#1047,#1048,#1049,#1050,#1051,#1052,#1053,
    #1054,#1055),.UNSPECIFIED.,.F.,.F.,(10,8,10),(-2.218259475787E-06,
    0.785398163398,1.570798545055),.UNSPECIFIED.);
#1038 = CARTESIAN_POINT('',(12.247448713914,1.042170685555));
#1039 = CARTESIAN_POINT('',(11.65610392829,0.987544618404));
#1040 = CARTESIAN_POINT('',(11.050032753599,0.93450984174));
#1041 = CARTESIAN_POINT('',(10.419617667148,0.883416035351));
#1042 = CARTESIAN_POINT('',(9.766248732927,0.836089210338));
#1043 = CARTESIAN_POINT('',(9.079428835916,0.793689989136));
#1044 = CARTESIAN_POINT('',(8.362939922138,0.759118064955));
#1045 = CARTESIAN_POINT('',(7.623833778354,0.735335849209));
#1046 = CARTESIAN_POINT('',(6.873783720326,0.723403477125));
#1047 = CARTESIAN_POINT('',(5.373664993588,0.723403477125));
#1048 = CARTESIAN_POINT('',(4.623614935543,0.73533584921));
#1049 = CARTESIAN_POINT('',(3.88450879185,0.759118064952));
#1050 = CARTESIAN_POINT('',(3.168019877847,0.793689989144));
#1051 = CARTESIAN_POINT('',(2.481199981173,0.836089210325));
#1052 = CARTESIAN_POINT('',(1.827831046625,0.883416035362));
#1053 = CARTESIAN_POINT('',(1.197415960377,0.934509841735));
#1054 = CARTESIAN_POINT('',(0.591344785621,0.987544618405));
#1055 = CARTESIAN_POINT('',(-1.038701775571E-15,1.042170685555));
#1056 = ( GEOMETRIC_REPRESENTATION_CONTEXT(2) 
PARAMETRIC_REPRESENTATION_CONTEXT() REPRESENTATION_CONTEXT('2D SPACE',''
  ) );
#1057 = ORIENTED_EDGE('',*,*,#847,.F.);
#1058 = ORIENTED_EDGE('',*,*,#258,.F.);
#1059 = ADVANCED_FACE('',(#1060),#189,.F.);
#1060 = FACE_BOUND('',#1061,.F.);
#1061 = EDGE_LOOP('',(#1062,#1084,#1171,#1172));
#1062 = ORIENTED_EDGE('',*,*,#1063,.T.);
#1063 = EDGE_CURVE('',#158,#1064,#1066,.T.);
#1064 = VERTEX_POINT('',#1065);
#1065 = CARTESIAN_POINT('',(21.17082039325,49.72360679775,0.5527864045)
  );
#1066 = SURFACE_CURVE('',#1067,(#1071,#1078),.PCURVE_S1.);
#1067 = ( BOUNDED_CURVE() B_SPLINE_CURVE(2,(#1068,#1069,#1070),
.UNSPECIFIED.,.F.,.F.) B_SPLINE_CURVE_WITH_KNOTS((3,3),(0.,
1.570800763314),.PIECEWISE_BEZIER_KNOTS.) CURVE() 
GEOMETRIC_REPRESENTATION_ITEM() RATIONAL_B_SPLINE_CURVE((1.,
0.850650808352,1.)) REPRESENTATION_ITEM('') );
#1068 = CARTESIAN_POINT('',(21.170822377322,50.61803398875,0.));
#1069 = CARTESIAN_POINT('',(21.170821006361,50.,2.22044604925E-16));
#1070 = CARTESIAN_POINT('',(21.17082039325,49.72360679775,0.5527864045)
  );
#1071 = PCURVE('',#189,#1072);
#1072 = DEFINITIONAL_REPRESENTATION('',(#1073),#1077);
#1073 = LINE('',#1074,#1075);
#1074 = CARTESIAN_POINT('',(0.,-2.218259474856E-06));
#1075 = VECTOR('',#1076,1.);
#1076 = DIRECTION('',(1.,0.));
#1077 = ( GEOMETRIC_REPRESENTATION_CONTEXT(2) 
PARAMETRIC_REPRESENTATION_CONTEXT() REPRESENTATION_CONTEXT('2D SPACE',''
  ) );
#1078 = PCURVE('',#244,#1079);
#1079 = DEFINITIONAL_REPRESENTATION('',(#1080),#1083);
#1080 = B_SPLINE_CURVE_WITH_KNOTS('',1,(#1081,#1082),.UNSPECIFIED.,.F.,
  .F.,(2,2),(0.,1.570800763314),.PIECEWISE_BEZIER_KNOTS.);
#1081 = CARTESIAN_POINT('',(2.484767946953E-11,1.170818409182));
#1082 = CARTESIAN_POINT('',(36.719999999992,1.170818409182));
#1083 = ( GEOMETRIC_REPRESENTATION_CONTEXT(2) 
PARAMETRIC_REPRESENTATION_CONTEXT() REPRESENTATION_CONTEXT('2D SPACE',''
  ) );
#1084 = ORIENTED_EDGE('',*,*,#1085,.T.);
#1085 = EDGE_CURVE('',#1064,#900,#1086,.T.);
#1086 = SURFACE_CURVE('',#1087,(#1099,#1106),.PCURVE_S1.);
#1087 = ( BOUNDED_CURVE() B_SPLINE_CURVE(10,(#1088,#1089,#1090,#1091,
    #1092,#1093,#1094,#1095,#1096,#1097,#1098),.UNSPECIFIED.,.F.,.F.) 
B_SPLINE_CURVE_WITH_KNOTS((11,11),(-2.218259474856E-06,1.570798545055),
.PIECEWISE_BEZIER_KNOTS.) CURVE() GEOMETRIC_REPRESENTATION_ITEM() 
RATIONAL_B_SPLINE_CURVE((1.,1.,1.,1.,1.,1.,1.,1.,1.,1.,1.)) 
REPRESENTATION_ITEM('') );
#1088 = CARTESIAN_POINT('',(21.17082039325,49.72360679775,0.5527864045)
  );
#1089 = CARTESIAN_POINT('',(21.030324057993,49.743677687522,
    0.512644624956));
#1090 = CARTESIAN_POINT('',(20.883150018198,49.748029978398,
    0.474102039618));
#1091 = CARTESIAN_POINT('',(20.725969129115,49.730563846869,
    0.439071976192));
#1092 = CARTESIAN_POINT('',(20.575649815992,49.682743146176,
    0.41179086587));
#1093 = CARTESIAN_POINT('',(20.405166723575,49.594833276425,
    0.398556017987));
#1094 = CARTESIAN_POINT('',(20.317256853824,49.424350184007,
    0.41179086587));
#1095 = CARTESIAN_POINT('',(20.269436153131,49.274030870885,
    0.439071976192));
#1096 = CARTESIAN_POINT('',(20.251970021602,49.116849981801,
    0.474102039618));
#1097 = CARTESIAN_POINT('',(20.256322312478,48.969675942006,
    0.512644624956));
#1098 = CARTESIAN_POINT('',(20.27639320225,48.82917960675,0.552786404499
    ));
#1099 = PCURVE('',#189,#1100);
#1100 = DEFINITIONAL_REPRESENTATION('',(#1101),#1105);
[...]
  ) );
#2276 = PCURVE('',#1757,#2277);
#2277 = DEFINITIONAL_REPRESENTATION('',(#2278),#2287);
#2278 = B_SPLINE_CURVE_WITH_KNOTS('',7,(#2279,#2280,#2281,#2282,#2283,
    #2284,#2285,#2286),.UNSPECIFIED.,.F.,.F.,(8,8),(4.712388980385,
    5.819537698181),.PIECEWISE_BEZIER_KNOTS.);
#2279 = CARTESIAN_POINT('',(3.15024578689E-15,19.381967858257));
#2280 = CARTESIAN_POINT('',(3.091611796858,19.381967580425));
#2281 = CARTESIAN_POINT('',(6.021165785262,19.381967317156));
#2282 = CARTESIAN_POINT('',(8.867082953367,19.381967061403));
#2283 = CARTESIAN_POINT('',(11.68570340821,19.381966808104));
#2284 = CARTESIAN_POINT('',(14.531620686297,19.381966552351));
#2285 = CARTESIAN_POINT('',(17.461174607642,19.381966289083));
#2286 = CARTESIAN_POINT('',(20.5527864045,19.38196601125));
#2287 = ( GEOMETRIC_REPRESENTATION_CONTEXT(2) 
PARAMETRIC_REPRESENTATION_CONTEXT() REPRESENTATION_CONTEXT('2D SPACE',''
  ) );
#2288 = ORIENTED_EDGE('',*,*,#2166,.F.);
#2289 = ADVANCED_FACE('',(#2290),#1711,.T.);
#2290 = FACE_BOUND('',#2291,.T.);
#2291 = EDGE_LOOP('',(#2292,#2293,#2334));
#2292 = ORIENTED_EDGE('',*,*,#2233,.F.);
#2293 = ORIENTED_EDGE('',*,*,#2294,.T.);
#2294 = EDGE_CURVE('',#2202,#1650,#2295,.T.);
#2295 = SURFACE_CURVE('',#2296,(#2301,#2308),.PCURVE_S1.);
#2296 = CIRCLE('',#2297,1.);
#2297 = AXIS2_PLACEMENT_3D('',#2298,#2299,#2300);
#2298 = CARTESIAN_POINT('',(25.618033988751,25.618033988751,
    9.000000000002));
#2299 = DIRECTION('',(5.231647586001E-13,-1.,-8.526503166242E-13));
#2300 = DIRECTION('',(-0.999999999998,-5.231631837474E-13,
    -1.847007844447E-06));
#2301 = PCURVE('',#1711,#2302);
#2302 = DEFINITIONAL_REPRESENTATION('',(#2303),#2307);
#2303 = LINE('',#2304,#2305);
#2304 = CARTESIAN_POINT('',(1.570797250297,-6.28318530718));
#2305 = VECTOR('',#2306,1.);
#2306 = DIRECTION('',(0.,1.));
#2307 = ( GEOMETRIC_REPRESENTATION_CONTEXT(2) 
PARAMETRIC_REPRESENTATION_CONTEXT() REPRESENTATION_CONTEXT('2D SPACE',''
  ) );
#2308 = PCURVE('',#1875,#2309);
#2309 = DEFINITIONAL_REPRESENTATION('',(#2310),#2333);
#2310 = B_SPLINE_CURVE_WITH_KNOTS('',11,(#2311,#2312,#2313,#2314,#2315,
    #2316,#2317,#2318,#2319,#2320,#2321,#2322,#2323,#2324,#2325,#2326,
    #2327,#2328,#2329,#2330,#2331,#2332),.UNSPECIFIED.,.F.,.F.,(12,10,12
    ),(4.712388980385,5.265962415779,5.819535851173),.UNSPECIFIED.);
#2311 = CARTESIAN_POINT('',(20.5527864045,0.61803398875));
#2312 = CARTESIAN_POINT('',(19.569093382918,0.618033900349));
#2313 = CARTESIAN_POINT('',(18.600379283845,0.618033813294));
#2314 = CARTESIAN_POINT('',(17.647393328787,0.618033727652));
#2315 = CARTESIAN_POINT('',(16.700126234624,0.618033642526));
#2316 = CARTESIAN_POINT('',(15.771876387681,0.618033559105));
#2317 = CARTESIAN_POINT('',(14.840605841055,0.618033475417));
#2318 = CARTESIAN_POINT('',(13.924900786861,0.618033393124));
#2319 = CARTESIAN_POINT('',(13.008141741608,0.618033310739));
#2320 = CARTESIAN_POINT('',(12.096940956985,0.618033228852));
#2321 = CARTESIAN_POINT('',(11.18660977534,0.618033147044));
#2322 = CARTESIAN_POINT('',(9.36614322197,0.618032983445));
#2323 = CARTESIAN_POINT('',(8.45590932387,0.618032901646));
#2324 = CARTESIAN_POINT('',(7.544121508817,0.618032819707));
#2325 = CARTESIAN_POINT('',(6.629231617594,0.618032737489));
#2326 = CARTESIAN_POINT('',(5.709676762526,0.618032654851));
#2327 = CARTESIAN_POINT('',(4.783859462906,0.618032571652));
#2328 = CARTESIAN_POINT('',(3.850127780125,0.61803248774));
#2329 = CARTESIAN_POINT('',(2.906755453159,0.618032402963));
#2330 = CARTESIAN_POINT('',(1.951922033701,0.618032317155));
#2331 = CARTESIAN_POINT('',(0.983693021582,0.618032230144));
#2332 = CARTESIAN_POINT('',(5.676289175852E-17,0.618032141743));
#2333 = ( GEOMETRIC_REPRESENTATION_CONTEXT(2) 
PARAMETRIC_REPRESENTATION_CONTEXT() REPRESENTATION_CONTEXT('2D SPACE',''
  ) );
#2334 = ORIENTED_EDGE('',*,*,#1689,.F.);
#2335 = ADVANCED_FACE('',(#2336),#1757,.T.);
#2336 = FACE_BOUND('',#2337,.T.);
#2337 = EDGE_LOOP('',(#2338,#2339,#2374,#2399));
#2338 = ORIENTED_EDGE('',*,*,#1740,.F.);
#2339 = ORIENTED_EDGE('',*,*,#2340,.T.);
#2340 = EDGE_CURVE('',#1741,#2341,#2343,.T.);
#2341 = VERTEX_POINT('',#2342);
#2342 = CARTESIAN_POINT('',(44.38196601125,44.38196601125,10.));
#2343 = SURFACE_CURVE('',#2344,(#2349,#2361),.PCURVE_S1.);
#2344 = CIRCLE('',#2345,1.);
#2345 = AXIS2_PLACEMENT_3D('',#2346,#2347,#2348);
#2346 = CARTESIAN_POINT('',(44.381966011252,44.381966011252,9.));
#2347 = DIRECTION('',(2.065015410284E-06,-0.999999999998,
    -1.890039744771E-12));
#2348 = DIRECTION('',(0.894427190998,1.847005087541E-06,0.4472135955));
#2349 = PCURVE('',#1757,#2350);
#2350 = DEFINITIONAL_REPRESENTATION('',(#2351),#2360);
#2351 = B_SPLINE_CURVE_WITH_KNOTS('',7,(#2352,#2353,#2354,#2355,#2356,
    #2357,#2358,#2359),.UNSPECIFIED.,.F.,.F.,(8,8),(0.,1.107148717796),
  .PIECEWISE_BEZIER_KNOTS.);
#2352 = CARTESIAN_POINT('',(1.7763568394E-15,0.618032141743));
#2353 = CARTESIAN_POINT('',(3.091611796858,0.618032419575));
#2354 = CARTESIAN_POINT('',(6.021165785262,0.618032682844));
#2355 = CARTESIAN_POINT('',(8.867082953366,0.618032938597));
#2356 = CARTESIAN_POINT('',(11.685703408212,0.618033191896));
#2357 = CARTESIAN_POINT('',(14.531620686294,0.618033447649));
#2358 = CARTESIAN_POINT('',(17.461174607642,0.618033710918));
#2359 = CARTESIAN_POINT('',(20.5527864045,0.61803398875));
#2360 = ( GEOMETRIC_REPRESENTATION_CONTEXT(2) 
PARAMETRIC_REPRESENTATION_CONTEXT() REPRESENTATION_CONTEXT('2D SPACE',''
  ) );
#2361 = PCURVE('',#2009,#2362);
#2362 = DEFINITIONAL_REPRESENTATION('',(#2363),#2373);
#2363 = B_SPLINE_CURVE_WITH_KNOTS('',8,(#2364,#2365,#2366,#2367,#2368,
    #2369,#2370,#2371,#2372),.UNSPECIFIED.,.F.,.F.,(9,9),(0.,
    1.107148717796),.PIECEWISE_BEZIER_KNOTS.);
#2364 = CARTESIAN_POINT('',(-7.105427357601E-15,-0.201361292946));
#2365 = CARTESIAN_POINT('',(0.128940791791,-0.25786004491));
#2366 = CARTESIAN_POINT('',(0.261279028569,-0.310635391116));
#2367 = CARTESIAN_POINT('',(0.398178278218,-0.358141327333));
#2368 = CARTESIAN_POINT('',(0.54040874897,-0.398758099442));
#2369 = CARTESIAN_POINT('',(0.68832446903,-0.430817909173));
#2370 = CARTESIAN_POINT('',(0.840807702383,-0.452704035402));
#2371 = CARTESIAN_POINT('',(0.995534793546,-0.463648180569));
#2372 = CARTESIAN_POINT('',(1.150263530682,-0.463647608999));
#2373 = ( GEOMETRIC_REPRESENTATION_CONTEXT(2) 
PARAMETRIC_REPRESENTATION_CONTEXT() REPRESENTATION_CONTEXT('2D SPACE',''
  ) );
#2374 = ORIENTED_EDGE('',*,*,#2375,.T.);
#2375 = EDGE_CURVE('',#2341,#2167,#2376,.T.);
#2376 = SURFACE_CURVE('',#2377,(#2383,#2390),.PCURVE_S1.);
#2377 = B_SPLINE_CURVE_WITH_KNOTS('',2,(#2378,#2379,#2380,#2381,#2382),
  .UNSPECIFIED.,.F.,.F.,(3,1,1,3),(-1.01079320225,-0.27639320225,
    20.27639320225,21.01079320225),.UNSPECIFIED.);
#2378 = CARTESIAN_POINT('',(44.38196601125,46.01079320225,10.));
#2379 = CARTESIAN_POINT('',(44.38196601125,45.64359320225,10.));
#2380 = CARTESIAN_POINT('',(44.38196601125,35.,10.));
#2381 = CARTESIAN_POINT('',(44.38196601125,24.35640679775,10.));
#2382 = CARTESIAN_POINT('',(44.38196601125,23.98920679775,10.));
#2383 = PCURVE('',#1757,#2384);
#2384 = DEFINITIONAL_REPRESENTATION('',(#2385),#2389);
#2385 = LINE('',#2386,#2387);
#2386 = CARTESIAN_POINT('',(20.5527864045,0.));
#2387 = VECTOR('',#2388,1.);
#2388 = DIRECTION('',(0.,1.));
#2389 = ( GEOMETRIC_REPRESENTATION_CONTEXT(2) 
PARAMETRIC_REPRESENTATION_CONTEXT() REPRESENTATION_CONTEXT('2D SPACE',''
  ) );
#2390 = PCURVE('',#2219,#2391);
#2391 = DEFINITIONAL_REPRESENTATION('',(#2392),#2398);
#2392 = B_SPLINE_CURVE_WITH_KNOTS('',2,(#2393,#2394,#2395,#2396,#2397),
  .UNSPECIFIED.,.F.,.F.,(3,1,1,3),(-1.01079320225,-0.27639320225,
    20.27639320225,21.01079320225),.UNSPECIFIED.);
#2393 = CARTESIAN_POINT('',(9.38196601125,11.01079320225));
#2394 = CARTESIAN_POINT('',(9.38196601125,10.64359320225));
#2395 = CARTESIAN_POINT('',(9.38196601125,7.105427357601E-15));
#2396 = CARTESIAN_POINT('',(9.38196601125,-10.64359320225));
#2397 = CARTESIAN_POINT('',(9.38196601125,-11.01079320225));
#2398 = ( GEOMETRIC_REPRESENTATION_CONTEXT(2) 
PARAMETRIC_REPRESENTATION_CONTEXT() REPRESENTATION_CONTEXT('2D SPACE',''
  ) );
#2399 = ORIENTED_EDGE('',*,*,#2262,.F.);
#2400 = ADVANCED_FACE('',(#2401),#1875,.T.);
#2401 = FACE_BOUND('',#2402,.T.);
#2402 = EDGE_LOOP('',(#2403,#2404,#2431,#2456));
#2403 = ORIENTED_EDGE('',*,*,#2294,.F.);
#2404 = ORIENTED_EDGE('',*,*,#2405,.T.);
#2405 = EDGE_CURVE('',#2202,#2406,#2408,.T.);
#2406 = VERTEX_POINT('',#2407);
#2407 = CARTESIAN_POINT('',(25.61803398875,44.381967858257,10.));
#2408 = SURFACE_CURVE('',#2409,(#2415,#2422),.PCURVE_S1.);
#2409 = B_SPLINE_CURVE_WITH_KNOTS('',2,(#2410,#2411,#2412,#2413,#2414),
  .UNSPECIFIED.,.F.,.F.,(3,1,1,3),(-1.01079320225,-0.27639320225,
    20.27639320225,21.01079320225),.UNSPECIFIED.);
#2410 = CARTESIAN_POINT('',(25.61803398875,23.98920679775,10.));
#2411 = CARTESIAN_POINT('',(25.61803398875,24.35640679775,10.));
#2412 = CARTESIAN_POINT('',(25.61803398875,35.,10.));
#2413 = CARTESIAN_POINT('',(25.61803398875,45.64359320225,10.));
#2414 = CARTESIAN_POINT('',(25.61803398875,46.01079320225,10.));
#2415 = PCURVE('',#1875,#2416);
#2416 = DEFINITIONAL_REPRESENTATION('',(#2417),#2421);
#2417 = LINE('',#2418,#2419);
#2418 = CARTESIAN_POINT('',(20.5527864045,0.));
#2419 = VECTOR('',#2420,1.);
#2420 = DIRECTION('',(0.,1.));
#2421 = ( GEOMETRIC_REPRESENTATION_CONTEXT(2) 
PARAMETRIC_REPRESENTATION_CONTEXT() REPRESENTATION_CONTEXT('2D SPACE',''
  ) );
#2422 = PCURVE('',#2219,#2423);
#2423 = DEFINITIONAL_REPRESENTATION('',(#2424),#2430);
#2424 = B_SPLINE_CURVE_WITH_KNOTS('',2,(#2425,#2426,#2427,#2428,#2429),
  .UNSPECIFIED.,.F.,.F.,(3,1,1,3),(-1.01079320225,-0.27639320225,
    20.27639320225,21.01079320225),.UNSPECIFIED.);
#2425 = CARTESIAN_POINT('',(-9.38196601125,-11.01079320225));
#2426 = CARTESIAN_POINT('',(-9.38196601125,-10.64359320225));
#2427 = CARTESIAN_POINT('',(-9.38196601125,0.));
#2428 = CARTESIAN_POINT('',(-9.38196601125,10.64359320225));
#2429 = CARTESIAN_POINT('',(-9.38196601125,11.01079320225));
#2430 = ( GEOMETRIC_REPRESENTATION_CONTEXT(2) 
PARAMETRIC_REPRESENTATION_CONTEXT() REPRESENTATION_CONTEXT('2D SPACE',''
  ) );
#2431 = ORIENTED_EDGE('',*,*,#2432,.T.);
#2432 = EDGE_CURVE('',#2406,#1823,#2433,.T.);
#2433 = SURFACE_CURVE('',#2434,(#2439,#2449),.PCURVE_S1.);
#2434 = CIRCLE('',#2435,1.);
#2435 = AXIS2_PLACEMENT_3D('',#2436,#2437,#2438);
#2436 = CARTESIAN_POINT('',(25.618033988751,44.381966011249,
    9.000000000002));
#2437 = DIRECTION('',(9.235029892054E-07,-0.999999999998,
    1.847007837341E-06));
#2438 = DIRECTION('',(-1.,-9.235029892054E-07,8.566186896388E-13));
#2439 = PCURVE('',#1875,#2440);
#2440 = DEFINITIONAL_REPRESENTATION('',(#2441),#2448);
#2441 = B_SPLINE_CURVE_WITH_KNOTS('',5,(#2442,#2443,#2444,#2445,#2446,
    #2447),.UNSPECIFIED.,.F.,.F.,(6,6),(4.712388980385,5.819537698181),
  .PIECEWISE_BEZIER_KNOTS.);
#2442 = CARTESIAN_POINT('',(20.5527864045,19.38196601125));
#2443 = CARTESIAN_POINT('',(16.224529888898,19.381966400215));
#2444 = CARTESIAN_POINT('',(12.23627096647,19.381966758626));
#2445 = CARTESIAN_POINT('',(8.316515438018,19.381967110881));
#2446 = CARTESIAN_POINT('',(4.328256515601,19.381967469292));
#2447 = CARTESIAN_POINT('',(3.234108605815E-15,19.381967858257));
#2448 = ( GEOMETRIC_REPRESENTATION_CONTEXT(2) 
PARAMETRIC_REPRESENTATION_CONTEXT() REPRESENTATION_CONTEXT('2D SPACE',''
  ) );
#2449 = PCURVE('',#2086,#2450);
#2450 = DEFINITIONAL_REPRESENTATION('',(#2451),#2455);
#2451 = LINE('',#2452,#2453);
#2452 = CARTESIAN_POINT('',(0.,-6.28318530718));
#2453 = VECTOR('',#2454,1.);
#2454 = DIRECTION('',(0.,1.));
#2455 = ( GEOMETRIC_REPRESENTATION_CONTEXT(2) 
PARAMETRIC_REPRESENTATION_CONTEXT() REPRESENTATION_CONTEXT('2D SPACE',''
  ) );
#2456 = ORIENTED_EDGE('',*,*,#1860,.F.);
#2457 = ADVANCED_FACE('',(#2458),#2009,.T.);
#2458 = FACE_BOUND('',#2459,.T.);
#2459 = EDGE_LOOP('',(#2460,#2461,#2488));
#2460 = ORIENTED_EDGE('',*,*,#1941,.F.);
#2461 = ORIENTED_EDGE('',*,*,#2462,.T.);
#2462 = EDGE_CURVE('',#1904,#2341,#2463,.T.);
#2463 = SURFACE_CURVE('',#2464,(#2469,#2476),.PCURVE_S1.);
#2464 = CIRCLE('',#2465,1.);
#2465 = AXIS2_PLACEMENT_3D('',#2466,#2467,#2468);
#2466 = CARTESIAN_POINT('',(44.381966011252,44.381966011252,9.));
#2467 = DIRECTION('',(0.999999999998,-2.065015409372E-06,
    1.904103706609E-12));
#2468 = DIRECTION('',(-9.235046690703E-07,-0.447213595499,0.894427191));
#2469 = PCURVE('',#2009,#2470);
#2470 = DEFINITIONAL_REPRESENTATION('',(#2471),#2475);
#2471 = LINE('',#2472,#2473);
#2472 = CARTESIAN_POINT('',(1.150263530682,-6.28318530718));
#2473 = VECTOR('',#2474,1.);
#2474 = DIRECTION('',(0.,1.));
#2475 = ( GEOMETRIC_REPRESENTATION_CONTEXT(2) 
PARAMETRIC_REPRESENTATION_CONTEXT() REPRESENTATION_CONTEXT('2D SPACE',''
  ) );
#2476 = PCURVE('',#2130,#2477);
#2477 = DEFINITIONAL_REPRESENTATION('',(#2478),#2487);
#2478 = B_SPLINE_CURVE_WITH_KNOTS('',7,(#2479,#2480,#2481,#2482,#2483,
    #2484,#2485,#2486),.UNSPECIFIED.,.F.,.F.,(8,8),(4.712388980385,
    5.819537698181),.PIECEWISE_BEZIER_KNOTS.);
#2479 = CARTESIAN_POINT('',(-2.178824731311E-15,19.381967858257));
#2480 = CARTESIAN_POINT('',(3.091611796858,19.381967580425));
#2481 = CARTESIAN_POINT('',(6.021165785263,19.381967317156));
#2482 = CARTESIAN_POINT('',(8.867082953364,19.381967061403));
#2483 = CARTESIAN_POINT('',(11.685703408214,19.381966808104));
#2484 = CARTESIAN_POINT('',(14.531620686294,19.381966552351));
#2485 = CARTESIAN_POINT('',(17.461174607642,19.381966289083));
#2486 = CARTESIAN_POINT('',(20.5527864045,19.38196601125));
#2487 = ( GEOMETRIC_REPRESENTATION_CONTEXT(2) 
PARAMETRIC_REPRESENTATION_CONTEXT() REPRESENTATION_CONTEXT('2D SPACE',''
  ) );
#2488 = ORIENTED_EDGE('',*,*,#2340,.F.);
#2489 = ADVANCED_FACE('',(#2490),#2086,.T.);
#2490 = FACE_BOUND('',#2491,.T.);
#2491 = EDGE_LOOP('',(#2492,#2493,#2534));
#2492 = ORIENTED_EDGE('',*,*,#2432,.F.);
#2493 = ORIENTED_EDGE('',*,*,#2494,.T.);
#2494 = EDGE_CURVE('',#2406,#2027,#2495,.T.);
#2495 = SURFACE_CURVE('',#2496,(#2501,#2508),.PCURVE_S1.);
#2496 = CIRCLE('',#2497,1.);
#2497 = AXIS2_PLACEMENT_3D('',#2498,#2499,#2500);
#2498 = CARTESIAN_POINT('',(25.618033988751,44.381966011249,
    9.000000000002));
#2499 = DIRECTION('',(-1.,-5.236576374397E-13,-8.49097602035E-13));
#2500 = DIRECTION('',(-5.236560691489E-13,0.999999999998,
    -1.847007837341E-06));
#2501 = PCURVE('',#2086,#2502);
#2502 = DEFINITIONAL_REPRESENTATION('',(#2503),#2507);
#2503 = LINE('',#2504,#2505);
#2504 = CARTESIAN_POINT('',(1.570797250297,-6.28318530718));
#2505 = VECTOR('',#2506,1.);
#2506 = DIRECTION('',(0.,1.));
#2507 = ( GEOMETRIC_REPRESENTATION_CONTEXT(2) 
PARAMETRIC_REPRESENTATION_CONTEXT() REPRESENTATION_CONTEXT('2D SPACE',''
  ) );
#2508 = PCURVE('',#2130,#2509);
#2509 = DEFINITIONAL_REPRESENTATION('',(#2510),#2533);
#2510 = B_SPLINE_CURVE_WITH_KNOTS('',11,(#2511,#2512,#2513,#2514,#2515,
    #2516,#2517,#2518,#2519,#2520,#2521,#2522,#2523,#2524,#2525,#2526,
    #2527,#2528,#2529,#2530,#2531,#2532),.UNSPECIFIED.,.F.,.F.,(12,10,12
    ),(4.712388980385,5.265962415779,5.819535851173),.UNSPECIFIED.);
#2511 = CARTESIAN_POINT('',(20.5527864045,0.61803398875));
#2512 = CARTESIAN_POINT('',(19.569093382916,0.618033900349));
#2513 = CARTESIAN_POINT('',(18.600379283854,0.618033813294));
#2514 = CARTESIAN_POINT('',(17.647393328768,0.618033727651));
#2515 = CARTESIAN_POINT('',(16.700126234656,0.618033642527));
#2516 = CARTESIAN_POINT('',(15.771876387646,0.618033559104));
#2517 = CARTESIAN_POINT('',(14.840605841087,0.618033475418));
#2518 = CARTESIAN_POINT('',(13.924900786838,0.618033393124));
#2519 = CARTESIAN_POINT('',(13.008141741622,0.61803331074));
#2520 = CARTESIAN_POINT('',(12.09694095698,0.618033228852));
#2521 = CARTESIAN_POINT('',(11.186609775341,0.618033147044));
#2522 = CARTESIAN_POINT('',(9.36614322197,0.618032983445));
#2523 = CARTESIAN_POINT('',(8.455909323871,0.618032901646));
#2524 = CARTESIAN_POINT('',(7.544121508814,0.618032819706));
#2525 = CARTESIAN_POINT('',(6.6292316176,0.61803273749));
#2526 = CARTESIAN_POINT('',(5.709676762519,0.61803265485));
#2527 = CARTESIAN_POINT('',(4.783859462912,0.618032571653));
#2528 = CARTESIAN_POINT('',(3.85012778012,0.618032487739));
#2529 = CARTESIAN_POINT('',(2.906755453161,0.618032402963));
#2530 = CARTESIAN_POINT('',(1.9519220337,0.618032317155));
#2531 = CARTESIAN_POINT('',(0.983693021583,0.618032230144));
#2532 = CARTESIAN_POINT('',(1.7763568394E-15,0.618032141743));
#2533 = ( GEOMETRIC_REPRESENTATION_CONTEXT(2) 
PARAMETRIC_REPRESENTATION_CONTEXT() REPRESENTATION_CONTEXT('2D SPACE',''
  ) );
#2534 = ORIENTED_EDGE('',*,*,#2064,.F.);
#2535 = ADVANCED_FACE('',(#2536),#2130,.T.);
#2536 = FACE_BOUND('',#2537,.T.);
#2537 = EDGE_LOOP('',(#2538,#2539,#2564,#2565));
#2538 = ORIENTED_EDGE('',*,*,#2494,.F.);
#2539 = ORIENTED_EDGE('',*,*,#2540,.T.);
#2540 = EDGE_CURVE('',#2406,#2341,#2541,.T.);
#2541 = SURFACE_CURVE('',#2542,(#2548,#2555),.PCURVE_S1.);
#2542 = B_SPLINE_CURVE_WITH_KNOTS('',2,(#2543,#2544,#2545,#2546,#2547),
  .UNSPECIFIED.,.F.,.F.,(3,1,1,3),(-1.01079320225,-0.27639320225,
    20.27639320225,21.01079320225),.UNSPECIFIED.);
#2543 = CARTESIAN_POINT('',(23.98920679775,44.38196601125,10.));
#2544 = CARTESIAN_POINT('',(24.35640679775,44.38196601125,10.));
#2545 = CARTESIAN_POINT('',(35.,44.38196601125,10.));
#2546 = CARTESIAN_POINT('',(45.64359320225,44.38196601125,10.));
#2547 = CARTESIAN_POINT('',(46.01079320225,44.38196601125,10.));
#2548 = PCURVE('',#2130,#2549);
#2549 = DEFINITIONAL_REPRESENTATION('',(#2550),#2554);
#2550 = LINE('',#2551,#2552);
#2551 = CARTESIAN_POINT('',(20.5527864045,0.));
#2552 = VECTOR('',#2553,1.);
#2553 = DIRECTION('',(0.,1.));
#2554 = ( GEOMETRIC_REPRESENTATION_CONTEXT(2) 
PARAMETRIC_REPRESENTATION_CONTEXT() REPRESENTATION_CONTEXT('2D SPACE',''
  ) );
#2555 = PCURVE('',#2219,#2556);
#2556 = DEFINITIONAL_REPRESENTATION('',(#2557),#2563);
#2557 = B_SPLINE_CURVE_WITH_KNOTS('',2,(#2558,#2559,#2560,#2561,#2562),
  .UNSPECIFIED.,.F.,.F.,(3,1,1,3),(-1.01079320225,-0.27639320225,
    20.27639320225,21.01079320225),.UNSPECIFIED.);
#2558 = CARTESIAN_POINT('',(-11.01079320225,9.38196601125));
#2559 = CARTESIAN_POINT('',(-10.64359320225,9.38196601125));
#2560 = CARTESIAN_POINT('',(0.,9.38196601125));
#2561 = CARTESIAN_POINT('',(10.64359320225,9.38196601125));
#2562 = CARTESIAN_POINT('',(11.01079320225,9.38196601125));
#2563 = ( GEOMETRIC_REPRESENTATION_CONTEXT(2) 
PARAMETRIC_REPRESENTATION_CONTEXT() REPRESENTATION_CONTEXT('2D SPACE',''
  ) );
#2564 = ORIENTED_EDGE('',*,*,#2462,.F.);
#2565 = ORIENTED_EDGE('',*,*,#2115,.F.);
#2566 = ADVANCED_FACE('',(#2567),#2219,.T.);
#2567 = FACE_BOUND('',#2568,.T.);
#2568 = EDGE_LOOP('',(#2569,#2570,#2571,#2572));
#2569 = ORIENTED_EDGE('',*,*,#2201,.F.);
#2570 = ORIENTED_EDGE('',*,*,#2375,.F.);
#2571 = ORIENTED_EDGE('',*,*,#2540,.F.);
#2572 = ORIENTED_EDGE('',*,*,#2405,.F.);
#2573 = ( GEOMETRIC_REPRESENTATION_CONTEXT(3) 
GLOBAL_UNCERTAINTY_ASSIGNED_CONTEXT((#2577)) 
GLOBAL_UNIT_ASSIGNED_CONTEXT((#2574,#2575,#2576)) REPRESENTATION_CONTEXT
('Context #1','3D Context with UNIT and UNCERTAINTY') );
#2574 = ( LENGTH_UNIT() NAMED_UNIT(*) SI_UNIT(.MILLI.,.METRE.) );
#2575 = ( NAMED_UNIT(*) PLANE_ANGLE_UNIT() SI_UNIT($,.RADIAN.) );
#2576 = ( NAMED_UNIT(*) SI_UNIT($,.STERADIAN.) SOLID_ANGLE_UNIT() );
#2577 = UNCERTAINTY_MEASURE_WITH_UNIT(LENGTH_MEASURE(2.E-05),#2574,
  'distance_accuracy_value','confusion accuracy');
#2578 = PRODUCT_RELATED_PRODUCT_CATEGORY('part',$,(#7));
#2579 = MECHANICAL_DESIGN_GEOMETRIC_PRESENTATION_REPRESENTATION('',(
    #2580),#2573);
#2580 = STYLED_ITEM('color',(#2581),#15);
#2581 = PRESENTATION_STYLE_ASSIGNMENT((#2582,#2588));
#2582 = SURFACE_STYLE_USAGE(.BOTH.,#2583);
#2583 = SURFACE_SIDE_STYLE('',(#2584));
#2584 = SURFACE_STYLE_FILL_AREA(#2585);
#2585 = FILL_AREA_STYLE('',(#2586));
#2586 = FILL_AREA_STYLE_COLOUR('',#2587);
#2587 = COLOUR_RGB('',0.800000011921,0.800000011921,0.800000011921);
#2588 = CURVE_STYLE('',#2589,POSITIVE_LENGTH_MEASURE(0.1),#2587);
#2589 = DRAUGHTING_PRE_DEFINED_CURVE_FONT('continuous');
ENDSEC;
END-ISO-10303-21;
