$# LS-DYNA Keyword file created by LS-PrePost(R) V4.3 - 26Nov2016(09:00)
$# Created on Nov-3-2017 (16:33:20)
*KEYWORD
*MAT_COHESIVE_PAPER
         6 1.0000E-9     0.000     0.000      16.7     38.73    10.134      14.5
      0.24      0.29    0.0144       1.07      0.3       0.1     0.250     108.0
   -0.9500  1.950000    -50.00
*END
